##############################################################################
#                                                                            #
# This CIF contains the data in a paper accepted for publication in          #
# Acta Crystallographica Section C. It conforms to the requirements of       #
# Notes for Authors for Acta Crystallographica Section C, and has been       #
# peer reviewed under the auspices of the IUCr Commission on Journals.       #
#                                                                            #
# Full details of the Crystallographic Information File format               #
# are given in the paper "The Crystallographic Information File (CIF):       #
# a New Standard Archive File for Crystallography" by S. R. Hall, F. H.      #
# Allen and I. D. Brown [Acta Cryst. (1991), A47, 655-685].                  #
#                                                                            #
# The current version of the core CIF dictionary is obtainable from          #
# ftp://ftp.iucr.org/pub/cif_core.dic.                                       #
#                                                                            #
# Software is freely available for graphical display of the structure(s)     #
# in this CIF. For information consult the CIF software page                 #
# http://www.iucr.org/resources/cif/software.                                #
#                                                                            #
# This file may be used for bona fide research purposes within the           #
# scientific community so long as proper attribution is given to the journal # 
# article from which it was obtained.                                        #
#                                                                            #
##############################################################################
data_global
_audit_creation_method
;
Olex2 1.2
(compiled 2017.03.02 svn.r3394 for OlexSys, GUI svn.r5324)
;
_journal_date_recd_electronic     2018-01-08
_journal_date_accepted     2018-04-30
_journal_name_full     'Acta Crystallographica, Section C'
_journal_year     2018
_journal_volume     74
_journal_issue      6
_journal_page_first     666
_journal_page_last     672
_journal_paper_category     FA
_journal_paper_doi     10.1107/S2053229618006617
_journal_coeditor_code     QS3070
_publ_contact_author_name     'Haixia Ma'
_publ_contact_author_address
;
School of Chemical Engineering
Northwest University
Shaanxi Xi'an 710069
People's Republic of China
;
_publ_contact_author_email     mahx@nwu.edu.cn
_publ_contact_author_phone       .86E-306
_publ_section_title
;
Synthesis, crystal structure and thermal properties of an unsymmetrical
1,2,4,5-tetrazine energetic derivative
;
loop_
    _publ_author_name
    _publ_author_address
    'Xiang Chen'
;
School of Chemical Engineering
Northwest University
Shaanxi Xi'an 710069
People's Republic of China
;
    'Cong Zhang'
;
School of Chemical Engineering
Northwest University
Shaanxi Xi'an 710069
People's Republic of China
;
    'Yang Bai'
;
School of Chemical Engineering
Northwest University
Shaanxi Xi'an 710069
People's Republic of China
;
    'Zhaoqi Guo'
;
School of Chemical Engineering
Northwest University
Shaanxi Xi'an 710069
People's Republic of China
;
    'Yanru Yao'
;
School of Chemical Engineering
Northwest University
Shaanxi Xi'an 710069
People's Republic of China
;
    'Jirong Song'
;
Conservation Technology Department
the Palace Museum
Beijing 100009
People's Republic of China
;
    'Haixia Ma'
;
School of Chemical Engineering
Northwest University
Shaanxi Xi'an 710069
People's Republic of China
;
data_I
_database_code_depnum_ccdc_archive     'CCDC 1815376'
_chemical_name_systematic
;\
4-({2-[6-(3,5-Dimethyl-1<i>H</i>-pyrazol-1-yl)-1,2,4,5-tetrazin-3-yl]\
hydrazin-1-ylidene}methyl)phenol
;
_chemical_name_common     ?
_chemical_formula_moiety     'C14 H14 N8 O'
_chemical_formula_sum     'C14 H14 N8 O'
_chemical_formula_iupac     'C14 H14 N8 O'
_chemical_formula_weight     310.33
_chemical_melting_point     ?
_shelx_space_group_comment
;
The symmetry employed for this shelxl refinement is uniquely defined
by the following loop, which should always be used as a source of
symmetry information in preference to the above space-group names.
They are only intended as comments.
;
_space_group_crystal_system     monoclinic
_space_group_name_H-M_alt     'P 21/c'
_space_group_name_Hall     '-P 2ybc'
loop_
    _space_group_symop_operation_xyz
    'x, y, z'
    '-x, y+1/2, -z+1/2'
    '-x, -y, -z'
    'x, -y-1/2, z-1/2'
_cell_length_a     5.8043(16)
_cell_length_b     31.562(9)
_cell_length_c     7.898(2)
_cell_angle_alpha     90
_cell_angle_beta     95.860(6)
_cell_angle_gamma     90
_cell_volume     1439.3(7)
_cell_formula_units_Z     4
_cell_measurement_reflns_used     1328
_cell_measurement_theta_min     2.67
_cell_measurement_theta_max     23.31
_cell_measurement_temperature     296(2)
_exptl_crystal_description     block
_exptl_crystal_colour     red
_exptl_crystal_size_max     0.356
_exptl_crystal_size_mid     0.273
_exptl_crystal_size_min     0.134
_exptl_crystal_density_diffrn     1.432
_exptl_crystal_density_meas     .
_exptl_crystal_density_method     'not measured'
_exptl_crystal_F_000     648
_exptl_absorpt_coefficient_mu     0.100
_exptl_absorpt_correction_type     multi-scan
_exptl_absorpt_process_details
;
(SADABS; Sheldrick, 2008a)
;
_shelx_estimated_absorpt_T_min     0.965
_shelx_estimated_absorpt_T_max     0.987
_exptl_absorpt_correction_T_min     0.6786
_exptl_absorpt_correction_T_max     0.7455
_exptl_special_details     ?
_diffrn_ambient_temperature     296.15
_diffrn_radiation_type     MoK\a
_diffrn_radiation_wavelength     0.71073
_diffrn_radiation_monochromator     'graphite'
_diffrn_measurement_device_type     'Bruker APEXII CCD'
_diffrn_measurement_method     '\f and \w scans'
_diffrn_detector_area_resol_mean     ?
_diffrn_reflns_number     7247
_diffrn_reflns_av_R_equivalents     0.0394
_diffrn_reflns_theta_min     2.581
_diffrn_reflns_theta_max     25.099
_diffrn_reflns_theta_full     25.099
_diffrn_measured_fraction_theta_max     0.998
_diffrn_measured_fraction_theta_full     0.998
_diffrn_reflns_limit_h_min     -6
_diffrn_reflns_limit_h_max     6
_diffrn_reflns_limit_k_min     -37
_diffrn_reflns_limit_k_max     36
_diffrn_reflns_limit_l_min     -9
_diffrn_reflns_limit_l_max     8
_diffrn_standards_number     0
_refine_special_details
;
 Unit cell dimensions were obtained with least-squares refinements
and semi-empirical absorption corrections were applied using the SADABS
program (Sheldrick, 2008a). The structure was solved by
direct methods and
refined by full-matrix least squares techniques based on <i>F</i>^2^ with the
<i>SHELXTL</i> and <i>OLEX^2^</i> program (Sheldrick, 2008b;
Dolomanov <i>et al.</i>, 2009). All
non-hydrogen atoms were obtained from the difference
Fourier map and refined with atomic anisotropic thermal parameters.
;
_reflns_number_total     2552
_reflns_number_gt     1640
_reflns_threshold_expression     'I > 2\s(I)'
_refine_ls_structure_factor_coef     Fsqd
_refine_ls_matrix_type     full
_refine_ls_R_factor_all     0.0961
_refine_ls_R_factor_gt     0.0585
_refine_ls_wR_factor_gt     0.1544
_refine_ls_wR_factor_ref     0.1787
_refine_ls_goodness_of_fit_ref     1.050
_refine_ls_restrained_S_all     1.050
_refine_ls_number_reflns     2552
_refine_ls_number_parameters     209
_refine_ls_number_restraints     0
_refine_ls_hydrogen_treatment     constr
_refine_ls_weighting_scheme     calc
_refine_ls_weighting_details
              'w=1/[\s^2^(Fo^2^)+(0.0822P)^2^+0.8073P] where P=(Fo^2^+2Fc^2^)/3'
_atom_sites_solution_hydrogens     geom
_atom_sites_solution_primary     ?
_atom_sites_solution_secondary     ?
_refine_ls_shift/su_max     0.000
_refine_ls_shift/su_mean     0.000
_refine_diff_density_max     0.361
_refine_diff_density_min     -0.353
_refine_ls_extinction_method     none
_refine_ls_extinction_coef     .
loop_
    _atom_type_symbol
    _atom_type_description
    _atom_type_scat_dispersion_real
    _atom_type_scat_dispersion_imag
    _atom_type_scat_source
    'C' 'C' 0.0033 0.0016
                         'International Tables Vol C Tables 4.2.6.8 and 6.1.1.4'
    'H' 'H' 0.0000 0.0000
                         'International Tables Vol C Tables 4.2.6.8 and 6.1.1.4'
    'N' 'N' 0.0061 0.0033
                         'International Tables Vol C Tables 4.2.6.8 and 6.1.1.4'
    'O' 'O' 0.0106 0.0060
                         'International Tables Vol C Tables 4.2.6.8 and 6.1.1.4'
_computing_data_collection
;
APEX2 (Bruker, 2009)
;
_computing_cell_refinement
;
SAINT (Bruker, 2009)
;
_computing_data_reduction
;
SAINT (Bruker, 2009)
;
_computing_structure_solution
;
SHELXS97 (Sheldrick, 2008b)
;
_computing_structure_refinement
;
SHELXL2014 (Sheldrick, 2015)
;
_computing_molecular_graphics
;
OLEX2 (Dolomanov <i>et al.</i>,  2009)
;
_computing_publication_material
;
OLEX2 (Dolomanov <i>et al.</i>,  2009)
;
loop_
    _atom_site_type_symbol
    _atom_site_label
    _atom_site_fract_x
    _atom_site_fract_y
    _atom_site_fract_z
    _atom_site_U_iso_or_equiv
    _atom_site_adp_type
    _atom_site_calc_flag
    _atom_site_occupancy
    _atom_site_disorder_assembly
    _atom_site_disorder_group
    N N1 0.4725(4) 0.17854(8) 0.9759(4) 0.0458(7) Uani d 1 . .
    N N2 0.6592(4) 0.15510(8) 1.0433(3) 0.0394(6) Uani d 1 . .
    N N3 0.4779(4) 0.09682(8) 0.9071(3) 0.0437(7) Uani d 1 . .
    N N4 0.4834(4) 0.05731(8) 0.8544(3) 0.0435(7) Uani d 1 . .
    N N5 0.8530(4) 0.08987(8) 1.0552(3) 0.0397(6) Uani d 1 . .
    N N6 0.8598(4) 0.04984(8) 1.0057(3) 0.0403(7) Uani d 1 . .
    N N7 0.7035(4) -0.00418(8) 0.8395(4) 0.0438(7) Uani d 1 . .
    H H7 0.8273 -0.0184 0.8694 0.053 Uiso calc 1 . .
    N N8 0.5285(4) -0.02186(8) 0.7307(3) 0.0424(7) Uani d 1 . .
    O O1 -0.0617(4) -0.15167(8) 0.2356(3) 0.0628(7) Uani d 1 . .
    H H1 -0.1797 -0.1384 0.2040 0.094 Uiso calc 1 . .
    C C1 0.3394(7) 0.25160(11) 0.9954(5) 0.0625(11) Uani d 1 . .
    H H1A 0.3935 0.2772 1.0518 0.094 Uiso calc 1 . .
    H H1B 0.3227 0.2561 0.8745 0.094 Uiso calc 1 . .
    H H1C 0.1922 0.2439 1.0318 0.094 Uiso calc 1 . .
    C C2 0.5100(5) 0.21682(10) 1.0389(4) 0.0450(8) Uani d 1 . .
    C C3 0.7182(6) 0.21879(10) 1.1458(5) 0.0499(9) Uani d 1 . .
    H H3 0.7801 0.2425 1.2040 0.060 Uiso calc 1 . .
    C C4 0.8124(5) 0.17896(9) 1.1475(4) 0.0416(8) Uani d 1 . .
    C C5 1.0308(6) 0.16287(11) 1.2399(5) 0.0542(9) Uani d 1 . .
    H H5A 1.0485 0.1334 1.2147 0.081 Uiso calc 1 . .
    H H5B 1.1597 0.1784 1.2046 0.081 Uiso calc 1 . .
    H H5C 1.0254 0.1664 1.3602 0.081 Uiso calc 1 . .
    C C6 0.6658(5) 0.11239(9) 0.9989(4) 0.0355(7) Uani d 1 . .
    C C7 0.6805(5) 0.03535(9) 0.8988(4) 0.0365(7) Uani d 1 . .
    C C8 0.5669(5) -0.05909(10) 0.6790(4) 0.0414(8) Uani d 1 . .
    H H8 0.7065 -0.0722 0.7158 0.050 Uiso calc 1 . .
    C C9 0.3971(5) -0.08178(9) 0.5631(4) 0.0391(7) Uani d 1 . .
    C C10 0.4444(5) -0.12280(10) 0.5134(4) 0.0457(8) Uani d 1 . .
    H H10 0.5838 -0.1353 0.5550 0.055 Uiso calc 1 . .
    C C11 0.2902(6) -0.14537(10) 0.4042(4) 0.0486(8) Uani d 1 . .
    H H11 0.3260 -0.1728 0.3723 0.058 Uiso calc 1 . .
    C C12 0.0809(5) -0.12707(11) 0.3418(4) 0.0442(8) Uani d 1 . .
    C C13 0.0292(5) -0.08607(10) 0.3881(4) 0.0442(8) Uani d 1 . .
    H H13 -0.1101 -0.0737 0.3454 0.053 Uiso calc 1 . .
    C C14 0.1856(5) -0.06362(10) 0.4980(4) 0.0427(8) Uani d 1 . .
    H H14 0.1500 -0.0362 0.5291 0.051 Uiso calc 1 . .
loop_
    _atom_site_aniso_label
    _atom_site_aniso_U_11
    _atom_site_aniso_U_22
    _atom_site_aniso_U_33
    _atom_site_aniso_U_12
    _atom_site_aniso_U_13
    _atom_site_aniso_U_23
    N1 0.0389(15) 0.0446(16) 0.0509(17) 0.0087(12) -0.0098(13) 0.0000(13)
    N2 0.0338(14) 0.0378(14) 0.0441(16) 0.0018(11) -0.0079(12) 0.0006(12)
    N3 0.0362(15) 0.0416(15) 0.0504(18) -0.0002(12) -0.0095(13) -0.0018(12)
    N4 0.0372(15) 0.0399(15) 0.0504(17) -0.0006(11) -0.0097(13) -0.0015(12)
    N5 0.0359(14) 0.0373(14) 0.0435(16) 0.0001(11) -0.0078(12) -0.0024(12)
    N6 0.0372(14) 0.0364(14) 0.0449(16) -0.0001(11) -0.0074(12) -0.0014(12)
    N7 0.0377(15) 0.0371(15) 0.0529(18) 0.0005(11) -0.0131(13) -0.0055(12)
    N8 0.0384(15) 0.0412(15) 0.0447(16) -0.0052(12) -0.0094(12) -0.0022(12)
    O1 0.0475(15) 0.0693(17) 0.0659(17) -0.0054(12) -0.0220(13) -0.0176(14)
    C1 0.059(2) 0.050(2) 0.076(3) 0.0151(18) -0.007(2) 0.0031(19)
    C2 0.0427(19) 0.0389(18) 0.052(2) 0.0051(15) 0.0001(16) 0.0059(15)
    C3 0.047(2) 0.0385(18) 0.062(2) 0.0008(15) -0.0065(17) -0.0014(16)
    C4 0.0390(17) 0.0351(17) 0.048(2) -0.0022(14) -0.0066(15) -0.0008(14)
    C5 0.044(2) 0.0443(19) 0.068(2) -0.0015(15) -0.0216(18) -0.0049(17)
    C6 0.0334(16) 0.0363(16) 0.0353(17) -0.0016(13) -0.0036(13) 0.0018(13)
    C7 0.0327(16) 0.0383(17) 0.0364(18) -0.0027(13) -0.0059(14) 0.0038(13)
    C8 0.0351(17) 0.0406(18) 0.046(2) -0.0015(13) -0.0070(15) -0.0001(15)
    C9 0.0354(16) 0.0430(18) 0.0373(18) -0.0031(14) -0.0044(14) 0.0018(14)
    C10 0.0359(17) 0.0485(19) 0.050(2) 0.0055(14) -0.0114(15) -0.0051(15)
    C11 0.0457(19) 0.0410(18) 0.056(2) 0.0016(15) -0.0080(16) -0.0108(16)
    C12 0.0364(17) 0.056(2) 0.0382(19) -0.0075(15) -0.0069(14) -0.0036(15)
    C13 0.0305(16) 0.053(2) 0.046(2) 0.0032(15) -0.0082(15) 0.0045(16)
    C14 0.0372(17) 0.0407(18) 0.049(2) 0.0018(14) -0.0043(15) 0.0020(15)
_geom_special_details
;
 All esds (except the esd in the dihedral angle between two l.s. planes)
 are estimated using the full covariance matrix.  The cell esds are taken
 into account individually in the estimation of esds in distances, angles
 and torsion angles; correlations between esds in cell parameters are only
 used when they are defined by crystal symmetry.  An approximate (isotropic)
 treatment of cell esds is used for estimating esds involving l.s. planes.
;
loop_
    _geom_bond_atom_site_label_1
    _geom_bond_atom_site_label_2
    _geom_bond_site_symmetry_2
    _geom_bond_distance
    _geom_bond_publ_flag
    N1 N2 . 1.373(3) y
    N1 C2 . 1.317(4) y
    N2 C4 . 1.373(4) y
    N2 C6 . 1.395(4) y
    N3 N4 . 1.316(3) y
    N3 C6 . 1.340(4) y
    N4 C7 . 1.353(4) y
    N5 N6 . 1.324(3) y
    N5 C6 . 1.336(4) y
    N6 C7 . 1.351(4) y
    N7 H7 . 0.8600 ?
    N7 N8 . 1.380(3) y
    N7 C7 . 1.344(4) y
    N8 C8 . 1.271(4) y
    O1 H1 . 0.8200 ?
    O1 C12 . 1.360(4) y
    C1 H1A . 0.9600 ?
    C1 H1B . 0.9600 ?
    C1 H1C . 0.9600 ?
    C1 C2 . 1.495(4) y
    C2 C3 . 1.403(4) y
    C3 H3 . 0.9300 ?
    C3 C4 . 1.370(4) y
    C4 C5 . 1.486(4) y
    C5 H5A . 0.9600 ?
    C5 H5B . 0.9600 ?
    C5 H5C . 0.9600 ?
    C8 H8 . 0.9300 ?
    C8 C9 . 1.462(4) y
    C9 C10 . 1.388(4) y
    C9 C14 . 1.404(4) y
    C10 H10 . 0.9300 ?
    C10 C11 . 1.376(4) y
    C11 H11 . 0.9300 ?
    C11 C12 . 1.389(5) y
    C12 C13 . 1.386(4) y
    C13 H13 . 0.9300 ?
    C13 C14 . 1.385(4) y
    C14 H14 . 0.9300 ?
loop_
    _geom_angle_atom_site_label_1
    _geom_angle_atom_site_label_2
    _geom_angle_atom_site_label_3
    _geom_angle_site_symmetry_1
    _geom_angle_site_symmetry_3
    _geom_angle
    _geom_angle_publ_flag
    C2 N1 N2 . . 104.7(3) ?
    N1 N2 C6 . . 117.7(2) ?
    C4 N2 N1 . . 112.0(2) ?
    C4 N2 C6 . . 130.4(3) ?
    N4 N3 C6 . . 118.3(3) ?
    N3 N4 C7 . . 116.8(3) ?
    N6 N5 C6 . . 117.2(3) ?
    N5 N6 C7 . . 117.6(2) ?
    N8 N7 H7 . . 120.0 ?
    C7 N7 H7 . . 120.0 ?
    C7 N7 N8 . . 120.0(3) ?
    C8 N8 N7 . . 115.6(3) ?
    C12 O1 H1 . . 109.5 ?
    H1A C1 H1B . . 109.5 ?
    H1A C1 H1C . . 109.5 ?
    H1B C1 H1C . . 109.5 ?
    C2 C1 H1A . . 109.5 ?
    C2 C1 H1B . . 109.5 ?
    C2 C1 H1C . . 109.5 ?
    N1 C2 C1 . . 120.4(3) ?
    N1 C2 C3 . . 111.5(3) ?
    C3 C2 C1 . . 128.0(3) ?
    C2 C3 H3 . . 126.8 ?
    C4 C3 C2 . . 106.5(3) ?
    C4 C3 H3 . . 126.8 ?
    N2 C4 C5 . . 125.1(3) ?
    C3 C4 N2 . . 105.3(3) ?
    C3 C4 C5 . . 129.6(3) ?
    C4 C5 H5A . . 109.5 ?
    C4 C5 H5B . . 109.5 ?
    C4 C5 H5C . . 109.5 ?
    H5A C5 H5B . . 109.5 ?
    H5A C5 H5C . . 109.5 ?
    H5B C5 H5C . . 109.5 ?
    N3 C6 N2 . . 116.7(3) ?
    N5 C6 N2 . . 118.2(3) ?
    N5 C6 N3 . . 125.1(3) ?
    N6 C7 N4 . . 124.4(3) ?
    N7 C7 N4 . . 119.8(3) ?
    N7 C7 N6 . . 115.8(3) ?
    N8 C8 H8 . . 119.2 ?
    N8 C8 C9 . . 121.6(3) ?
    C9 C8 H8 . . 119.2 ?
    C10 C9 C8 . . 119.6(3) ?
    C10 C9 C14 . . 117.9(3) ?
    C14 C9 C8 . . 122.5(3) ?
    C9 C10 H10 . . 119.2 ?
    C11 C10 C9 . . 121.7(3) ?
    C11 C10 H10 . . 119.2 ?
    C10 C11 H11 . . 120.1 ?
    C10 C11 C12 . . 119.7(3) ?
    C12 C11 H11 . . 120.1 ?
    O1 C12 C11 . . 115.9(3) ?
    O1 C12 C13 . . 124.1(3) ?
    C13 C12 C11 . . 120.0(3) ?
    C12 C13 H13 . . 120.1 ?
    C14 C13 C12 . . 119.8(3) ?
    C14 C13 H13 . . 120.1 ?
    C9 C14 H14 . . 119.6 ?
    C13 C14 C9 . . 120.9(3) ?
    C13 C14 H14 . . 119.6 ?
loop_
    _geom_torsion_atom_site_label_1
    _geom_torsion_atom_site_label_2
    _geom_torsion_atom_site_label_3
    _geom_torsion_atom_site_label_4
    _geom_torsion_site_symmetry_1
    _geom_torsion_site_symmetry_2
    _geom_torsion_site_symmetry_3
    _geom_torsion_site_symmetry_4
    _geom_torsion
    _geom_torsion_publ_flag
    N1 N2 C4 C3 . . . . 0.1(4) ?
    N1 N2 C4 C5 . . . . 179.8(3) ?
    N1 N2 C6 N3 . . . . -6.3(4) ?
    N1 N2 C6 N5 . . . . 176.0(3) ?
    N1 C2 C3 C4 . . . . -0.1(4) ?
    N2 N1 C2 C1 . . . . -179.2(3) ?
    N2 N1 C2 C3 . . . . 0.2(4) ?
    N3 N4 C7 N6 . . . . 6.7(5) ?
    N3 N4 C7 N7 . . . . -175.5(3) ?
    N4 N3 C6 N2 . . . . 176.0(3) ?
    N4 N3 C6 N5 . . . . -6.4(5) ?
    N5 N6 C7 N4 . . . . -7.9(4) ?
    N5 N6 C7 N7 . . . . 174.2(3) ?
    N6 N5 C6 N2 . . . . -177.3(3) ?
    N6 N5 C6 N3 . . . . 5.2(4) ?
    N7 N8 C8 C9 . . . . -180.0(3) ?
    N8 N7 C7 N4 . . . . 1.4(4) ?
    N8 N7 C7 N6 . . . . 179.5(3) ?
    N8 C8 C9 C10 . . . . -178.4(3) ?
    N8 C8 C9 C14 . . . . 1.9(5) ?
    O1 C12 C13 C14 . . . . 179.6(3) ?
    C1 C2 C3 C4 . . . . 179.2(3) ?
    C2 N1 N2 C4 . . . . -0.2(3) ?
    C2 N1 N2 C6 . . . . 179.6(3) ?
    C2 C3 C4 N2 . . . . 0.0(4) ?
    C2 C3 C4 C5 . . . . -179.7(3) ?
    C4 N2 C6 N3 . . . . 173.4(3) ?
    C4 N2 C6 N5 . . . . -4.3(5) ?
    C6 N2 C4 C3 . . . . -179.6(3) ?
    C6 N2 C4 C5 . . . . 0.1(5) ?
    C6 N3 N4 C7 . . . . 0.4(4) ?
    C6 N5 N6 C7 . . . . 1.8(4) ?
    C7 N7 N8 C8 . . . . 178.9(3) ?
    C8 C9 C10 C11 . . . . -179.8(3) ?
    C8 C9 C14 C13 . . . . 179.8(3) ?
    C9 C10 C11 C12 . . . . -0.3(5) ?
    C10 C9 C14 C13 . . . . 0.2(5) ?
    C10 C11 C12 O1 . . . . -179.6(3) ?
    C10 C11 C12 C13 . . . . 0.7(5) ?
    C11 C12 C13 C14 . . . . -0.7(5) ?
    C12 C13 C14 C9 . . . . 0.2(5) ?
    C14 C9 C10 C11 . . . . -0.1(5) ?
loop_
    _geom_hbond_atom_site_label_D
    _geom_hbond_atom_site_label_H
    _geom_hbond_atom_site_label_A
    _geom_hbond_site_symmetry_A
    _geom_hbond_distance_DH
    _geom_hbond_distance_HA
    _geom_hbond_distance_DA
    _geom_hbond_angle_DHA
    _geom_hbond_publ_flag
    O1 H1 N1 3_556 0.8200 2.4500 2.895(4) 115.00 yes
    O1 H1 N3 3_556 0.8200 2.2800 3.090(4) 172.00 yes
    N7 H7 N6 3_757 0.8600 2.2100 3.060(4) 169.00 yes
    C5 H5A N5 . 0.9600 2.1100 2.863(4) 134.00 yes
    C13 H13 N4 3_556 0.9300 2.6000 3.490(4) 161.00 yes
_shelx_hkl_file
;
   1   0   0  227.07    4.34
   1   0   0  221.58    3.56
   2   0   0   72.54    1.76
   2   0   0   72.71    1.28
   3   0   0    6.89    0.28
   3   0   0    6.96    0.60
   3   0   0    7.21    0.25
   4   0   0    5.33    0.61
   4   0   0    5.28    0.29
   5   0   0   18.44    0.62
   5   0   0   17.77    1.01
   6   0   0   11.69    0.85
   7   0   0    0.45    0.28
   1  -1   0  163.29    3.24
   1  -1   0  162.23    2.54
   1   1   0  162.74    3.19
   1   1   0  164.79    2.57
   2  -1   0   -0.11    0.23
   2  -1   0    0.20    0.06
   2   1   0    0.06    0.19
   2   1   0    0.04    0.05
   3  -1   0   15.24    0.41
   3  -1   0   15.13    0.82
   3  -1   0   15.19    0.44
   3   1   0   15.11    0.75
   3   1   0   15.39    0.46
   3   1   0   15.11    0.36
   4  -1   0   -0.03    0.31
   4  -1   0    0.34    0.10
   4   1   0    0.17    0.10
   4   1   0    0.09    0.26
   5  -1   0    5.53    0.69
   5   1   0    6.52    0.70
   5   1   0    6.69    0.36
   6  -1   0    0.15    0.27
   6   1   0    0.08    0.23
   7  -1   0    1.15    0.35
   7   1   0    0.63    0.31
   0   2   0   -0.19    0.01
   1  -2   0   10.48    0.45
   1  -2   0   10.46    0.22
   1   2   0   10.59    0.37
   1   2   0   10.36    0.27
   2  -2   0    4.93    0.18
   2  -2   0    4.75    0.49
   2   2   0    4.76    0.22
   2   2   0    4.52    0.37
   3  -2   0   17.59    0.47
   3  -2   0   17.35    0.87
   3  -2   0   17.78    0.46
   3   2   0   15.74    0.76
   3   2   0   17.50    0.50
   4  -2   0    1.16    0.16
   4  -2   0    0.95    0.40
   4   2   0    1.17    0.18
   4   2   0    0.85    0.32
   5  -2   0   -0.01    0.34
   5   2   0   -0.38    0.21
   5   2   0    0.26    0.12
   6  -2   0    0.94    0.38
   6   2   0    0.16    0.23
   7  -2   0    1.18    0.40
   7   2   0    1.51    0.40
   0   3   0    0.03    0.01
   1  -3   0  208.41    4.06
  -1   3   0  208.73    3.18
   1   3   0  205.20    3.28
   1   3   0  208.68    4.00
   2  -3   0    6.04    0.20
   2  -3   0    7.01    0.59
   2   3   0    5.89    0.39
   2   3   0    6.09    0.25
   3  -3   0    6.60    0.25
   3  -3   0    5.78    0.61
   3   3   0    5.11    0.45
   3   3   0    6.28    0.29
   4  -3   0    4.87    0.26
   4  -3   0    4.71    0.61
   4   3   0    5.13    0.30
   4   3   0    5.53    0.58
   5  -3   0   16.04    1.04
   5   3   0   17.10    0.62
   5   3   0   18.11    0.97
   6  -3   0    1.95    0.47
   6   3   0    1.32    0.36
   7  -3   0    0.10    0.27
   7   3   0    0.48    0.28
   0   4   0  139.52    2.17
   1  -4   0   81.29    1.78
   1   4   0   75.06    1.69
  -1   4   0   84.37    1.27
   1   4   0   84.82    1.39
   2  -4   0   69.19    1.17
   2  -4   0   70.83    1.81
   2   4   0   69.46    1.30
   2   4   0   67.43    1.62
   3  -4   0    2.01    0.48
   3  -4   0    2.79    0.16
   3   4   0    2.06    0.31
   3   4   0    2.78    0.21
   4  -4   0    3.34    0.26
   4  -4   0    3.83    0.61
   4   4   0    3.82    0.27
   4   4   0    3.39    0.45
  -4   4   0    3.54    0.23
   5  -4   0    0.88    0.47
   5   4   0    1.54    0.38
   5   4   0    2.32    0.28
   6  -4   0    0.08    0.33
   6   4   0    0.81    0.29
   7  -4   0    0.57    0.32
   7   4   0    0.84    0.31
   0   5   0   -0.08    0.03
   1  -5   0    2.35    0.31
   1   5   0    1.85    0.13
   2  -5   0  176.04    3.74
   2   5   0  174.21    3.60
   2   5   0  177.83    2.93
  -2   5   0  174.52    2.76
   3  -5   0    1.54    0.49
   3   5   0    1.44    0.18
   3   5   0    1.05    0.25
  -3   5   0    1.21    0.13
   4  -5   0    0.30    0.45
   4  -5   0    0.40    0.14
  -4   5   0    0.32    0.11
   4   5   0    0.06    0.10
   4   5   0    0.05    0.21
   5  -5   0   -0.03    0.41
   5   5   0    0.14    0.11
   5   5   0    0.20    0.21
   6  -5   0    1.04    0.46
   6   5   0    1.63    0.40
   6   5   0    2.14    0.30
   7  -5   0    0.31    0.37
   7   5   0    0.09    0.21
   0   6   0    3.82    0.14
   1  -6   0   22.72    0.75
   1   6   0   21.57    0.50
   2  -6   0    2.41    0.45
   2   6   0    2.42    0.19
  -2   6   0    2.84    0.12
   2   6   0    2.61    0.28
   3  -6   0   21.39    1.15
  -3   6   0   21.70    0.50
   3   6   0   20.92    0.62
   3   6   0   22.38    0.86
   4  -6   0    4.87    0.31
   4  -6   0    4.95    0.73
   4   6   0    4.73    0.52
   4   6   0    4.61    0.31
   5  -6   0    3.29    0.66
   5   6   0    2.63    0.47
   5   6   0    3.18    0.33
   6  -6   0    0.45    0.42
   6   6   0    0.12    0.14
   6   6   0    0.64    0.28
   7  -6   0    0.57    0.41
   7   6   0    0.56    0.26
   0   7   0   -0.02    0.06
   1  -7   0    6.84    0.48
   1   7   0    5.58    0.23
   1   7   0    4.45    0.13
   2  -7   0   -0.04    0.33
  -2   7   0    0.04    0.04
   2   7   0    0.10    0.08
   2   7   0    0.04    0.09
   3  -7   0   44.11    1.58
   3   7   0   44.57    1.03
   3   7   0   44.65    1.33
  -3   7   0   44.27    0.84
   4  -7   0    0.52    0.15
   4  -7   0    0.36    0.52
   4   7   0    0.19    0.11
   4   7   0    0.11    0.19
   5  -7   0   16.44    1.12
   5   7   0   17.94    0.96
   5   7   0   17.86    0.69
   6  -7   0    0.52    0.46
   6   7   0    0.26    0.21
   6   7   0    0.26    0.16
   7  -7   0    0.49    0.42
   7   7   0    0.25    0.21
   0  -8   0    9.72    0.36
   0   8   0    9.68    0.26
  -1  -8   0    1.47    0.12
   1  -8   0    1.28    0.25
  -1   8   0    1.17    0.07
   1   8   0    1.18    0.13
   2  -8   0   20.56    0.94
   2   8   0   21.06    0.58
   2   8   0   21.45    0.73
  -2   8   0   21.20    0.39
   3  -8   0   76.15    2.21
  -3   8   0   79.08    1.35
   3   8   0   77.74    1.58
   3   8   0   79.02    2.00
   4  -8   0   -0.25    0.57
   4  -8   0    0.23    0.15
   4   8   0    0.39    0.24
   4   8   0    0.47    0.14
   5  -8   0    7.06    0.85
   5   8   0    6.51    0.59
   5   8   0    7.69    0.45
   6  -8   0    1.08    0.50
   6   8   0    0.77    0.29
   6   8   0    1.00    0.22
   7  -8   0    0.45    0.43
   7   8   0    0.47    0.24
   0  -9   0   -0.25    0.06
   0   9   0    0.23    0.08
  -1  -9   0    8.92    0.27
   1  -9   0    8.47    0.47
   1   9   0    8.74    0.31
  -1   9   0    8.49    0.19
   2  -9   0   18.39    0.95
   2   9   0   18.48    0.66
   2   9   0   17.98    0.54
   3  -9   0    4.55    0.67
   3   9   0    3.06    0.25
   3   9   0    3.61    0.41
  -3   9   0    3.67    0.16
   4  -9   0    2.18    0.26
   4  -9   0    2.83    0.71
   4   9   0    2.67    0.42
   4   9   0    2.17    0.27
   5  -9   0    0.00    0.47
   5   9   0   -0.06    0.10
   5   9   0    0.00    0.18
   6  -9   0    3.69    0.67
   6   9   0    4.96    0.46
   6   9   0    3.84    0.56
   7  -9   0    0.62    0.46
   7   9   0   -0.01    0.20
   0 -10   0   85.94    1.82
   0  10   0   85.70    1.47
  -1 -10   0   20.23    0.47
   1 -10   0   19.86    0.70
  -1  10   0   19.90    0.38
   1  10   0   19.27    0.51
   2 -10   0    1.02    0.42
   2  10   0    0.72    0.13
   2  10   0    0.78    0.18
   3 -10   0    6.00    0.73
   3  10   0    6.52    0.47
   3  10   0    6.38    0.34
   4 -10   0    5.41    0.88
   4 -10   0    4.95    0.34
   4  10   0    5.64    0.36
   4  10   0    4.92    0.54
   5 -10   0    0.30    0.51
   5  10   0    0.01    0.11
   5  10   0    0.00    0.13
   6 -10   0   -0.20    0.40
   6  10   0    0.13    0.19
   6  10   0    0.21    0.15
   7 -10   0    0.11    0.43
   7  10   0    0.03    0.20
   0 -11   0    0.01    0.08
   0  11   0    0.02    0.06
   1 -11   0    2.98    0.31
  -1 -11   0    2.10    0.17
  -1  11   0    2.24    0.11
   1  11   0    2.24    0.19
  -2 -11   0    1.14    0.11
   2 -11   0    0.98    0.43
   2  11   0    1.03    0.16
   2  11   0    1.17    0.20
   3 -11   0   11.84    1.05
   3  11   0   12.09    0.49
   3  11   0   11.08    0.61
   4 -11   0    7.75    0.97
   4 -11   0    6.80    0.38
   4  11   0    8.60    0.44
   4  11   0    9.12    0.62
   5 -11   0    3.34    0.73
   5  11   0    3.91    0.40
   5  11   0    3.88    0.54
   6 -11   0    0.03    0.46
   6  11   0    0.20    0.19
   6  11   0    0.29    0.16
   7 -11   0    0.06    0.43
   7  11   0    0.12    0.24
   0 -12   0   56.92    1.33
   0  12   0   56.29    1.05
  -1 -12   0   13.51    0.40
   1 -12   0   12.88    0.57
   1  12   0   12.97    0.42
  -1  12   0   13.21    0.30
   2 -12   0    0.48    0.41
  -2 -12   0    0.10    0.08
   2  12   0    0.09    0.09
   3 -12   0   10.37    0.99
   3  12   0    9.71    0.56
   3  12   0   10.37    0.46
   4 -12   0   -0.08    0.05
   4 -12   0   -0.79    0.61
   4  12   0   -0.10    0.15
   4  12   0    0.09    0.11
   5 -12   0    4.96    0.82
   5  12   0    4.30    0.41
   5  12   0    3.65    0.52
   6 -12   0    1.61    0.57
   6  12   0    0.62    0.27
   6  12   0    0.92    0.24
  -7 -12   0   -0.15    0.22
   7 -12   0    0.80    0.47
   7  12   0    0.10    0.21
   7  12   0    0.37    0.28
   0 -13   0    0.24    0.10
   0  13   0    0.06    0.06
  -1 -13   0   15.61    0.45
   1 -13   0   15.11    0.63
   1  13   0   15.85    0.48
  -1  13   0   15.97    0.35
  -2 -13   0    1.42    0.15
   2 -13   0    1.67    0.46
   2  13   0    1.78    0.21
   3 -13   0   -0.40    0.54
   3  13   0   -0.01    0.13
   3  13   0   -0.13    0.08
   4 -13   0    0.53    0.19
   4 -13   0    0.51    0.69
   4  13   0    0.53    0.16
   4  13   0    0.19    0.21
   5 -13   0    1.97    0.71
   5  13   0    1.80    0.29
   5  13   0    1.61    0.36
   6 -13   0    3.40    0.72
   6  13   0    3.15    0.52
   6  13   0    2.91    0.38
   7 -13   0    0.26    0.48
   7  13   0    0.90    0.33
   7  13   0    0.38    0.22
   0 -14   0    5.90    0.34
   0  14   0    5.48    0.24
   1 -14   0    4.66    0.43
  -1 -14   0    4.97    0.26
  -1  14   0    4.73    0.17
   1  14   0    4.73    0.26
  -2 -14   0    1.15    0.15
   2 -14   0    0.97    0.43
   2  14   0    1.36    0.20
   3 -14   0    4.29    0.33
   3 -14   0    4.08    0.76
   3  14   0    4.37    0.32
   3  14   0    4.83    0.42
   4 -14   0    1.04    0.75
   4 -14   0    0.86    0.22
   4  14   0    0.78    0.26
   4  14   0    0.76    0.19
   5 -14   0    1.20    0.69
   5  14   0    0.39    0.15
   5  14   0    0.45    0.21
   6 -14   0    2.19    0.64
   6  14   0    2.51    0.46
   6  14   0    2.39    0.35
   0 -15   0    0.02    0.10
   0  15   0    0.04    0.07
   1 -15   0    0.87    0.25
  -1 -15   0    0.84    0.14
  -1  15   0    0.83    0.09
   1  15   0    0.74    0.14
   2 -15   0   42.43    1.43
  -2 -15   0   44.09    0.92
   2  15   0   43.35    1.05
   3 -15   0   -0.33    0.59
   3 -15   0    1.01    0.22
   3  15   0    0.76    0.23
   3  15   0    0.85    0.18
   4 -15   0    0.41    0.18
   4 -15   0    0.45    0.70
   4  15   0   -0.03    0.16
   4  15   0    0.15    0.12
   5 -15   0    0.36    0.62
   5 -15   0   -0.09    0.10
   5  15   0    0.14    0.18
   5  15   0    0.14    0.13
   6 -15   0    0.61    0.58
   6  15   0    0.23    0.17
   6  15   0    0.18    0.23
   0 -16   0    5.65    0.36
   0  16   0    6.01    0.26
  -1 -16   0    5.16    0.29
   1 -16   0    5.66    0.47
   1  16   0    5.64    0.29
  -1  16   0    5.09    0.20
   2 -16   0    4.46    0.57
  -2 -16   0    3.71    0.25
   2  16   0    3.71    0.28
   3 -16   0    9.24    0.49
   3 -16   0   10.39    1.00
   3  16   0    8.96    0.46
   4 -16   0    1.30    0.26
   4 -16   0    1.65    0.77
   4  16   0    0.43    0.22
   4  16   0    1.08    0.22
   5 -16   0    0.03    0.16
   5 -16   0    1.31    0.71
   5  16   0    1.05    0.31
   5  16   0    0.80    0.20
   6 -16   0    1.01    0.60
   6  16   0    1.08    0.28
   6  16   0    0.81    0.31
   0 -17   0    0.09    0.13
   0 -17   0   -0.10    0.10
   0  17   0   -0.03    0.07
  -1 -17   0   21.15    0.62
   1 -17   0   20.78    0.82
  -1  17   0   21.35    0.48
   1  17   0   21.95    0.62
  -2 -17   0   13.00    0.45
   2 -17   0   11.12    0.86
   2  17   0   13.03    0.52
   3 -17   0    6.79    0.91
   3 -17   0    6.08    0.42
   3  17   0    6.27    0.39
   4 -17   0    2.35    0.34
   4 -17   0    1.95    0.80
   4  17   0    2.12    0.29
   4  17   0    3.05    0.46
   5 -17   0    7.60    1.05
   5 -17   0    4.91    0.48
   5  17   0    5.23    0.62
   5  17   0    4.55    0.46
   6 -17   0    3.62    0.75
   6  17   0    2.04    0.45
   6  17   0    2.56    0.38
   0 -18   0   11.99    0.49
   0 -18   0   11.81    0.54
   0  18   0   12.12    0.40
  -1 -18   0    8.35    0.39
   1 -18   0    8.58    0.56
  -1  18   0    7.88    0.27
   1  18   0    8.80    0.38
  -2 -18   0    0.18    0.13
   2 -18   0    0.34    0.43
   2  18   0    0.18    0.11
   3 -18   0    2.15    0.31
   3 -18   0    2.87    0.78
   3  18   0    2.41    0.30
   4 -18   0    1.92    0.31
   4 -18   0    2.45    0.81
   4  18   0    2.61    0.33
   5 -18   0    0.54    0.71
   5 -18   0    0.69    0.27
   5  18   0    0.76    0.22
   5  18   0    0.93    0.31
   6 -18   0    0.52    0.62
   6  18   0    0.47    0.31
   6  18   0    0.34    0.20
   0 -19   0    0.02    0.14
   0 -19   0    0.08    0.13
   0  19   0    0.23    0.08
  -1 -19   0    0.41    0.15
   1 -19   0    0.58    0.28
   1  19   0    0.36    0.12
  -1  19   0    0.49    0.09
  -2 -19   0    0.51    0.16
   2 -19   0    0.68    0.20
   2 -19   0   -0.05    0.45
   2  19   0    0.34    0.13
   3 -19   0    0.27    0.70
   3 -19   0    0.03    0.16
   3  19   0    0.13    0.11
   4 -19   0    0.18    0.18
   4 -19   0    0.46    0.70
   4  19   0    0.05    0.12
   5 -19   0   -0.05    0.19
   5 -19   0    0.46    0.69
   5  19   0    0.07    0.14
   6 -19   0    1.95    0.71
   6  19   0    0.97    0.36
   6  19   0    0.83    0.25
   0 -20   0    2.75    0.30
   0 -20   0    2.11    0.29
   0  20   0    2.26    0.21
  -1 -20   0    3.03    0.30
   1 -20   0    2.86    0.41
   1 -20   0    2.77    0.32
  -1  20   0    2.30    0.17
   1  20   0    2.78    0.27
  -2 -20   0    5.52    0.34
   2 -20   0    5.31    0.66
   2 -20   0    5.38    0.48
   2  20   0    5.10    0.35
   3 -20   0    4.98    0.89
   3 -20   0    4.78    0.47
   3  20   0    3.83    0.38
   4 -20   0    2.01    0.77
   4 -20   0    0.89    0.25
   4  20   0    1.29    0.25
   5 -20   0    3.28    0.86
   5 -20   0    2.14    0.37
   5  20   0    2.24    0.34
   6 -20   0    1.45    0.68
   6  20   0    0.70    0.24
   0 -21   0    0.08    0.16
   0 -21   0    0.07    0.14
   0  21   0    0.17    0.10
   1 -21   0   13.18    0.73
  -1 -21   0   14.09    0.55
   1 -21   0   14.32    0.62
   1  21   0   13.35    0.52
  -1  21   0   13.92    0.40
   2 -21   0    0.23    0.18
   2 -21   0    0.40    0.48
  -2 -21   0    0.20    0.16
   2  21   0    0.46    0.15
   3 -21   0    7.29    0.50
   3 -21   0    8.64    1.03
   3  21   0    6.72    0.43
   4 -21   0    0.84    0.71
   4 -21   0    0.19    0.20
   4  21   0    0.22    0.15
   5 -21   0    3.03    0.87
   5 -21   0    3.05    0.43
   5  21   0    3.28    0.41
   6 -21   0    0.87    0.70
   0 -22   0    2.66    0.32
   0 -22   0    2.93    0.36
   0  22   0    2.63    0.24
   1 -22   0    2.19    0.31
   1 -22   0    1.93    0.40
  -1 -22   0    2.18    0.28
   1  22   0    2.56    0.27
  -2 -22   0    0.38    0.18
   2 -22   0   -0.22    0.47
   2 -22   0    0.38    0.21
   2  22   0    0.16    0.13
   3 -22   0    7.79    1.03
   3 -22   0    8.51    0.54
   3  22   0    8.54    0.49
   4 -22   0    0.22    0.20
   4 -22   0    0.76    0.72
   4  22   0    0.07    0.13
   5 -22   0    1.19    0.74
   5 -22   0    0.22    0.23
   5  22   0    0.16    0.16
   6 -22   0    0.71    0.69
   0 -23   0   -0.13    0.18
   0 -23   0   -0.10    0.14
   0  23   0    0.18    0.10
  -1 -23   0   -0.04    0.15
   1 -23   0    0.13    0.18
   1 -23   0   -0.29    0.30
   1  23   0   -0.14    0.08
   2 -23   0   15.35    1.03
   2 -23   0   15.58    0.71
   2  23   0   15.61    0.63
   3 -23   0    3.95    0.90
   3 -23   0    3.08    0.39
   3  23   0    3.94    0.39
   4 -23   0    0.80    0.73
   4 -23   0    0.48    0.23
   4  23   0    0.15    0.15
   5 -23   0    2.88    0.86
   5 -23   0    1.44    0.36
   5  23   0    2.42    0.37
   6 -23   0    1.12    0.73
   0 -24   0    0.17    0.21
   0 -24   0    0.41    0.19
   0  24   0    0.49    0.13
   1 -24   0    6.22    0.46
  -1 -24   0    6.17    0.42
   1 -24   0    7.45    0.65
   1  24   0    6.49    0.37
   2 -24   0    0.47    0.53
   2 -24   0    0.28    0.20
   2  24   0    0.36    0.14
   3 -24   0    8.93    0.57
   3 -24   0    7.76    1.04
   3  24   0    9.54    0.52
   4 -24   0    3.00    0.87
   4 -24   0    1.40    0.32
   4  24   0    1.88    0.31
   5 -24   0    0.00    0.71
   5 -24   0   -0.06    0.22
   5  24   0    0.17    0.18
   0 -25   0    0.07    0.18
   0 -25   0    0.24    0.24
   0  25   0    0.04    0.09
  -1 -25   0    1.35    0.28
  -1 -25   0    1.28    0.28
   1 -25   0    0.70    0.39
   1 -25   0    1.42    0.30
   1  25   0    0.89    0.18
   2 -25   0   21.35    0.85
   2 -25   0   19.85    1.15
   2  25   0   23.91    0.81
   3 -25   0    6.49    1.00
   3 -25   0    5.22    0.51
   3  25   0    4.94    0.39
   4 -25   0    2.07    0.38
   4 -25   0    1.80    0.84
   4  25   0    1.20    0.26
   5 -25   0    0.98    0.81
   5 -25   0   -0.01    0.23
   5  25   0    0.19    0.16
   0 -26   0    5.35    0.48
   0 -26   0    5.89    0.51
   0  26   0    6.56    0.34
   1 -26   0    6.20    0.47
  -1 -26   0    5.53    0.44
   1 -26   0    5.94    0.63
   1  26   0    5.37    0.36
   2 -26   0   10.17    0.93
   2 -26   0    9.78    0.59
   2  26   0    8.81    0.49
   3 -26   0   29.43    1.65
   3 -26   0   30.83    1.10
   3  26   0   29.20    1.00
   4 -26   0    3.37    0.90
   4 -26   0    2.55    0.42
   4  26   0    3.39    0.41
   5 -26   0    0.10    0.24
   5 -26   0    0.36    0.76
   5  26   0    0.21    0.16
   0 -27   0    0.05    0.18
   1 -27   0    0.67    0.24
   1 -27   0   -0.10    0.38
  -1 -27   0   -0.05    0.17
   1  27   0    0.26    0.13
   2 -27   0    4.50    0.48
   2 -27   0    4.82    0.74
   2  27   0    4.39    0.41
   3 -27   0   11.07    0.66
   3 -27   0   10.35    1.15
   3  27   0   10.20    0.56
   4 -27   0    1.14    0.33
   4 -27   0    0.72    0.79
   4  27   0    0.64    0.20
   5 -27   0    0.14    0.75
   5 -27   0    0.10    0.26
   0 -28   0    0.33    0.21
  -1 -28   0    3.52    0.42
   1 -28   0    3.35    0.42
   1  28   0    2.94    0.32
   2 -28   0   13.14    0.71
   2 -28   0   12.94    1.01
   2  28   0   14.47    0.63
   3 -28   0    3.44    0.46
   3 -28   0    2.73    0.88
   3  28   0    2.24    0.33
   4 -28   0    1.09    0.82
   4 -28   0    0.29    0.26
   4  28   0    0.09    0.14
   5 -28   0    0.30    0.29
   5 -28   0    1.78    0.90
   0 -29   0   -0.11    0.20
  -1 -29   0    1.13    0.28
   1 -29   0    1.12    0.30
   1  29   0    1.16    0.20
   2 -29   0    3.41    0.45
   2  29   0    3.24    0.35
   3 -29   0    0.12    0.21
   3  29   0   -0.04    0.12
   4 -29   0    0.52    0.28
   4 -29   0    1.69    0.88
   4  29   0    0.35    0.18
   5 -29   0    1.81    0.93
   0 -30   0   12.72    0.68
   1 -30   0    0.86    0.29
  -1 -30   0    1.14    0.30
   1  30   0    0.90    0.19
   2 -30   0    0.01    0.20
   2  30   0    0.28    0.16
   3 -30   0    0.03    0.23
   3  30   0    0.20    0.16
   4 -30   0   -0.26    0.22
   4  30   0    0.29    0.18
   5 -30   0    0.01    0.28
   0 -31   0    0.29    0.24
  -1 -31   0    2.32    0.39
   1 -31   0    2.37    0.40
   2 -31   0    0.68    0.29
   2  31   0    0.31    0.16
   3 -31   0    0.23    0.26
   3  31   0    0.45    0.18
   4 -31   0   -0.16    0.21
   4  31   0    0.07    0.16
   0 -32   0   13.81    0.74
   1 -32   0    1.63    0.35
  -1 -32   0    1.84    0.36
   2 -32   0    0.04    0.22
   2  32   0    0.35    0.17
   3 -32   0    0.32    0.27
   3  32   0    0.04    0.14
   4 -32   0    0.73    0.30
   4  32   0    0.66    0.24
   0 -33   0    0.43    0.26
   1 -33   0    0.68    0.28
  -1 -33   0    0.51    0.26
   2 -33   0   -0.06    0.21
   2  33   0    0.16    0.15
   3 -33   0    0.02    0.26
   3  33   0    0.28    0.17
   4 -33   0    0.02    0.25
   0 -34   0    4.05    0.51
   1 -34   0    0.26    0.26
  -1 -34   0    0.29    0.25
   2 -34   0    0.25    0.27
   2  34   0    0.12    0.14
   3 -34   0    1.30    0.37
   3  34   0    1.18    0.27
   4 -34   0    0.04    0.27
   0 -35   0   -0.15    0.22
   1 -35   0    0.05    0.24
  -1 -35   0    0.22    0.26
   2 -35   0    0.29    0.28
   2  35   0    0.25    0.16
   3 -35   0    0.06    0.27
   3  35   0    0.42    0.21
   0 -36   0    0.15    0.27
   1 -36   0    0.13    0.25
   2 -36   0   -0.30    0.23
   2  36   0   -0.03    0.16
   3 -36   0    2.33    0.47
   3  36   0    2.72    0.41
   0 -37   0    0.06    0.25
   1 -37   0   -0.25    0.21
   2 -37   0   -0.15    0.25
   3 -37   0    0.38    0.31
   0 -38   0    0.09    0.27
   1 -38   0    0.03    0.27
   2 -38   0    0.48    0.33
   0 -39   0    0.19    0.31
   1 -39   0    0.23    0.30
   2 -39   0    0.19    0.30
   0 -40   0    0.18    0.30
   1 -40   0    0.35    0.33
   7   0  -1    0.50    0.29
   6   0  -1    0.02    0.25
  -5   0   1    0.05    0.10
   5   0  -1   -0.31    0.23
  -4   0   1    0.02    0.08
   4   0  -1   -0.30    0.16
  -3   0   1    0.03    0.04
   3   0  -1   -0.17    0.13
   3   0  -1   -0.06    0.08
  -2   0   1   -0.02    0.04
   2   0  -1   -0.07    0.11
   2   0  -1    0.13    0.07
  -1   0   1   -0.08    0.04
   1   0  -1   -0.09    0.07
   0   0   1   -0.15    0.04
   1   0   1   -0.09    0.11
   1   0   1   -0.06    0.23
   2   0   1   -0.40    0.29
   2   0   1    0.05    0.08
   3   0   1   -0.37    0.34
   3   0   1   -0.01    0.08
   4   0   1   -0.47    0.35
   4   0   1   -0.08    0.08
   5   0   1    0.41    0.38
   6   0   1    0.25    0.30
   7   0   1    0.16    0.28
   7  -1  -1    0.36    0.35
   7   1  -1    0.38    0.28
   6  -1  -1    3.86    0.61
   6   1  -1    4.39    0.61
   5  -1  -1    6.21    0.69
  -5  -1   1    4.74    0.33
  -5   1   1    6.02    0.36
   5   1  -1    6.23    0.66
   4  -1  -1    1.68    0.36
  -4   1   1    2.47    0.24
   4   1  -1    2.35    0.38
  -3  -1   1    4.60    0.26
   3  -1  -1    5.21    0.26
   3  -1  -1    5.23    0.47
   3   1  -1    6.14    0.24
   3   1  -1    5.46    0.42
  -3   1   1    5.66    0.27
  -2  -1   1   41.66    0.85
   2  -1  -1   42.78    0.83
   2  -1  -1   40.73    1.11
   2   1  -1   42.24    1.12
   1  -1  -1   -0.10    0.04
   1  -1  -1   -0.10    0.07
  -1  -1   1   -0.09    0.04
  -1   1   1   -0.08    0.03
   1   1  -1   -0.07    0.06
   0  -1   1   93.60    1.55
   0   1   1   96.51    1.56
   1  -1   1   69.04    1.58
   1  -1   1   70.92    1.20
   1   1   1   70.32    1.23
   2  -1   1    1.64    0.15
   2  -1   1    1.74    0.39
   2   1   1    1.08    0.33
   2   1   1    1.63    0.15
   3  -1   1    2.23    0.49
   3  -1   1    2.46    0.18
   3   1   1    2.63    0.46
   3   1   1    2.97    0.21
   4  -1   1    5.86    0.30
   4  -1   1    6.10    0.73
   4   1   1    5.67    0.65
   4   1   1    5.97    0.33
   5  -1   1   25.93    1.29
   5   1   1   25.09    0.76
   5   1   1   23.07    1.22
   6  -1   1   13.56    0.98
   6   1   1   14.51    0.97
   7  -1   1    0.59    0.30
   7   1   1    0.89    0.31
   7  -2  -1    0.25    0.36
   7   2  -1    0.51    0.27
   6  -2  -1    0.39    0.32
   6   2  -1    0.22    0.24
   5  -2  -1    5.50    0.66
   5   2  -1    5.70    0.65
   4  -2  -1    0.52    0.29
  -4  -2   1    1.02    0.18
  -4   2   1    0.78    0.14
   4   2  -1    0.52    0.25
  -3  -2   1   12.75    0.44
   3  -2  -1   12.61    0.66
   3  -2  -1   12.96    0.40
   3   2  -1   12.48    0.43
   3   2  -1   12.15    0.61
  -3   2   1   12.00    0.40
   3   2  -1   12.65    0.33
  -2  -2   1    8.22    0.30
   2  -2  -1    8.08    0.29
   2  -2  -1    7.97    0.44
  -2   2   1    8.26    0.28
   2   2  -1    8.01    0.42
  -1  -2   1    0.36    0.07
   1  -2  -1    0.25    0.10
   1   2  -1    0.27    0.08
   0  -2   1    5.15    0.16
   0   2   1    5.12    0.18
   1  -2   1   38.72    1.01
   1  -2   1   39.87    0.72
   1   2   1   38.97    0.77
   2  -2   1   27.10    1.04
   2  -2   1   27.48    0.57
   2   2   1   27.93    0.63
   2   2   1   27.16    1.01
   3  -2   1    5.03    0.65
   3  -2   1    4.69    0.23
   3   2   1    4.82    0.53
   3   2   1    4.76    0.26
   4  -2   1   10.58    0.97
   4  -2   1   11.97    0.42
   4   2   1   12.82    0.48
   4   2   1   12.60    0.84
   5  -2   1   53.45    1.97
   5   2   1   54.33    1.29
   5   2   1   57.34    1.91
   6  -2   1    0.01    0.33
   6   2   1    0.32    0.28
   7  -2   1    1.46    0.39
   7   2   1    1.05    0.34
   7  -3  -1    3.04    0.62
   7   3  -1    5.07    0.71
   6  -3  -1    3.77    0.60
   6   3  -1    5.15    0.68
   5  -3  -1   -0.28    0.27
  -5  -3   1    0.12    0.12
   5   3  -1   -0.13    0.21
   4  -3  -1    1.27    0.36
  -4  -3   1    1.29    0.20
   4   3  -1    1.32    0.33
  -4   3   1    1.35    0.18
   4   3  -1    1.21    0.18
   3  -3  -1    5.71    0.53
   3  -3  -1    4.82    0.27
  -3   3   1    5.30    0.25
   3   3  -1    5.35    0.27
   3   3  -1    5.46    0.43
  -2  -3   1   26.69    0.63
   2  -3  -1   26.55    0.86
   2  -3  -1   27.08    0.61
   2   3  -1   26.67    0.63
  -2   3   1   26.95    0.59
   2   3  -1   26.50    0.83
   1  -3  -1  165.45    3.08
   1  -3  -1  141.22    2.59
  -1  -3   1  162.83    2.54
   1   3  -1  161.99    3.12
  -1   3   1  152.36    2.51
   0  -3   1   14.49    0.33
   0   3   1   15.06    0.37
   1  -3   1    9.97    0.49
   1  -3   1    9.38    0.27
   1   3   1    8.22    0.48
   1   3   1    9.48    0.32
   2  -3   1    0.02    0.06
   2  -3   1   -0.29    0.32
   2   3   1   -0.14    0.20
   2   3   1    0.01    0.08
   3  -3   1    6.85    0.27
   3  -3   1    7.52    0.76
   3   3   1    7.84    0.62
   3   3   1    6.47    0.32
   4  -3   1    0.10    0.09
   4  -3   1   -0.27    0.50
   4   3   1   -0.18    0.31
   4   3   1    0.05    0.09
   5  -3   1    1.01    0.50
   5   3   1    1.73    0.24
   5   3   1    1.84    0.46
   6  -3   1    1.08    0.43
   6   3   1    0.08    0.24
   7  -3   1    0.71    0.35
   7   3   1    0.65    0.28
   7  -4  -1    0.48    0.34
   7   4  -1    0.33    0.22
   6  -4  -1   14.34    0.97
  -6  -4   1   12.85    0.64
   6   4  -1   14.02    0.92
  -5  -4   1    0.23    0.13
   5  -4  -1    0.36    0.34
   5   4  -1    0.39    0.24
   4  -4  -1    2.12    0.23
   4  -4  -1    1.79    0.41
  -4  -4   1    2.22    0.26
  -4   4   1    2.15    0.22
   4   4  -1    2.39    0.26
   4   4  -1    2.08    0.37
   3  -4  -1    0.18    0.10
   3  -4  -1    0.30    0.25
  -3   4   1    0.12    0.07
   3   4  -1    0.20    0.15
   3   4  -1    0.25    0.08
   2  -4  -1    9.95    0.53
   2  -4  -1    9.85    0.34
   2   4  -1    9.32    0.46
   2   4  -1    9.57    0.33
  -2   4   1   10.18    0.31
  -1  -4   1   10.92    0.31
   1  -4  -1   10.85    0.33
   1  -4  -1    9.95    0.43
  -1   4   1   10.49    0.28
   0  -4   1   18.17    0.38
   0  -4  -1   18.41    0.43
   0   4   1   17.91    0.42
   1  -4   1    3.24    0.18
  -1  -4  -1    3.04    0.14
   1  -4   1    3.10    0.31
   1   4   1    2.60    0.20
   1   4   1    2.75    0.26
   2  -4   1    7.13    0.71
   2  -4   1    8.10    0.24
   2   4   1    7.84    0.31
   2   4   1    7.70    0.49
   3  -4   1    1.40    0.14
   3  -4   1    0.64    0.46
   3   4   1    1.06    0.29
   3   4   1    1.41    0.19
   4  -4   1    9.27    0.97
   4  -4   1    8.41    0.34
   4   4   1    8.38    0.40
   4   4   1    8.66    0.69
   5  -4   1    1.16    0.53
   5   4   1    1.78    0.41
   5   4   1    1.50    0.23
   6  -4   1    1.10    0.49
   6   4   1    0.32    0.25
   7  -4   1    1.63    0.46
   7   4   1    1.79    0.43
   7  -5  -1    0.37    0.36
   7   5  -1    0.36    0.25
   6  -5  -1    4.20    0.62
  -6  -5   1    3.14    0.36
   6   5  -1    4.47    0.63
   5  -5  -1    0.10    0.33
  -5  -5   1   -0.10    0.11
   5   5  -1   -0.01    0.18
   4  -5  -1    2.34    0.47
   4  -5  -1    2.51    0.25
   4   5  -1    2.41    0.26
   4   5  -1    3.07    0.45
  -4   5   1    2.07    0.21
   3  -5  -1    2.53    0.41
   3  -5  -1    2.86    0.24
  -3   5   1    2.68    0.18
   3   5  -1    2.80    0.21
   3   5  -1    2.38    0.34
   2  -5  -1    1.28    0.28
  -2   5   1    1.45    0.13
   2   5  -1    1.57    0.23
   2   5  -1    1.19    0.14
   1  -5  -1    4.81    0.47
   1  -5  -1    6.18    0.27
  -1  -5   1    6.30    0.23
   1   5  -1    5.78    0.22
  -1   5   1    6.33    0.23
   0  -5  -1  147.39    2.44
   0  -5   1  146.22    2.33
   0   5   1  146.88    2.39
  -1  -5  -1   17.84    0.42
   1  -5   1   18.45    0.39
   1  -5   1   18.46    0.66
   1   5   1   18.63    0.54
   1   5   1   17.53    0.47
   2  -5   1   23.69    1.01
   2   5   1   22.28    0.77
   2   5   1   23.75    0.60
   3  -5   1    0.08    0.06
   3  -5   1    0.18    0.45
   3   5   1   -0.05    0.08
   3   5   1   -0.12    0.18
   4  -5   1    6.88    0.90
   4   5   1    7.04    0.61
   4   5   1    7.48    0.39
   5  -5   1    0.33    0.50
   5   5   1    0.56    0.29
   5   5   1    0.61    0.16
   6  -5   1    0.75    0.47
   6   5   1    0.49    0.27
   7  -5   1    0.33    0.33
   7   5   1    0.38    0.26
   7  -6  -1    0.64    0.36
   7   6  -1    0.02    0.19
  -6  -6   1    7.19    0.49
   6  -6  -1    7.84    0.75
   6   6  -1    7.70    0.67
   5  -6  -1    0.65    0.40
  -5  -6   1    1.07    0.22
   5   6  -1    0.96    0.20
   5   6  -1    1.06    0.31
   4  -6  -1    0.25    0.15
   4  -6  -1    0.35    0.35
  -4   6   1    0.42    0.12
   4   6  -1    0.40    0.12
   4   6  -1    0.19    0.19
   3  -6  -1    0.74    0.32
   3  -6  -1    0.63    0.15
   3   6  -1    0.71    0.20
  -3   6   1    0.35    0.09
   3   6  -1    0.45    0.12
   2  -6  -1    4.83    0.47
   2   6  -1    4.80    0.24
  -2   6   1    4.66    0.19
   2   6  -1    4.58    0.33
   1  -6  -1   25.72    0.60
   1  -6  -1   24.04    0.78
  -1   6   1   25.95    0.54
   1   6  -1   25.37    0.56
   0  -6   1  121.78    2.03
   0  -6  -1  131.85    2.16
   0   6   1  125.30    2.09
   1  -6   1   11.80    0.27
   1  -6   1   11.33    0.55
  -1  -6  -1   11.33    0.32
   1   6   1   11.18    0.38
   1   6   1   10.89    0.38
   2  -6   1    0.16    0.35
   2  -6   1    0.39    0.06
   2   6   1    0.41    0.12
   3  -6   1   10.21    0.94
   3  -6   1    8.92    0.28
   3   6   1    9.55    0.57
   3   6   1    9.03    0.40
   4  -6   1    0.68    0.64
   4   6   1    0.77    0.19
   4   6   1    0.91    0.32
   5  -6   1    4.38    0.78
   5   6   1    4.86    0.60
   5   6   1    4.55    0.34
   6  -6   1    1.07    0.51
   6   6   1    0.34    0.23
   7  -6   1    0.65    0.43
   7   6   1    0.41    0.28
   7  -7  -1    0.51    0.36
   7   7  -1    0.39    0.22
   6  -7  -1    2.72    0.55
  -6  -7   1    2.88    0.37
   6   7  -1    2.77    0.48
   5  -7  -1    9.95    0.81
  -5  -7   1    9.20    0.50
   5   7  -1   10.01    0.69
   5   7  -1    9.03    0.48
   4  -7  -1    3.69    0.58
   4  -7  -1    2.85    0.29
   4   7  -1    3.13    0.26
   4   7  -1    3.29    0.45
   3  -7  -1   17.47    0.91
   3  -7  -1   17.64    0.56
   3   7  -1   16.26    0.55
  -3   7   1   16.93    0.46
   3   7  -1   15.50    0.73
   2  -7  -1   30.98    1.09
   2  -7  -1   31.32    0.75
   2   7  -1   31.37    0.74
  -2   7   1   31.50    0.65
   2   7  -1   30.07    0.94
   1  -7  -1   78.54    1.46
   1  -7  -1   79.12    1.73
  -1   7   1   78.05    1.35
   1   7  -1   77.69    1.40
   0  -7   1    7.84    0.23
   0  -7  -1    8.12    0.30
   0   7   1    7.81    0.31
  -1  -7  -1   12.76    0.36
   1  -7   1   13.18    0.28
   1  -7   1   13.92    0.57
   1   7   1   13.33    0.42
   1   7   1   12.51    0.40
   2  -7   1    3.16    0.48
   2  -7   1    3.31    0.12
   2   7   1    3.29    0.23
   3  -7   1   78.94    2.29
   3  -7   1   77.86    1.34
   3   7   1   81.41    1.61
   3   7   1   77.54    1.97
   4  -7   1    5.76    0.89
   4   7   1    6.56    0.38
   4   7   1    7.41    0.57
   5  -7   1    7.96    0.95
   5   7   1    6.54    0.60
   5   7   1    6.77    0.41
   6  -7   1    2.74    0.64
   6   7   1    2.38    0.32
   6   7   1    2.64    0.46
   7  -7   1    0.32    0.39
   7   7   1    0.79    0.31
   7  -8  -1   -0.01    0.33
   7   8  -1    0.29    0.23
   6  -8  -1    4.83    0.71
  -6  -8   1    3.73    0.41
   6   8  -1    3.48    0.54
   5  -8  -1    1.24    0.45
   5   8  -1    0.86    0.19
   5   8  -1    0.66    0.25
   4  -8  -1    1.57    0.48
   4  -8  -1    2.23    0.27
   4   8  -1    2.28    0.38
   4   8  -1    2.19    0.26
   3  -8  -1    0.03    0.05
   3  -8  -1   -0.09    0.32
  -3   8   1    0.18    0.08
   3   8  -1    0.11    0.13
   3   8  -1    0.12    0.08
   2  -8  -1    5.38    0.29
   2  -8  -1    5.40    0.51
   2   8  -1    5.35    0.36
  -2   8   1    5.35    0.22
   2   8  -1    5.46    0.27
   1  -8  -1    3.25    0.36
   1  -8  -1    3.15    0.22
   1   8  -1    2.51    0.16
  -1   8   1    3.13    0.22
   0  -8   1    0.11    0.05
   0  -8  -1    0.11    0.10
   0   8   1    0.01    0.13
   1  -8   1    0.74    0.21
  -1  -8  -1    0.54    0.10
   1  -8   1    0.43    0.06
   1   8   1    0.53    0.10
   1   8   1    0.52    0.14
   2  -8   1   63.18    1.77
   2   8   1   64.34    1.30
   3  -8   1   17.92    1.14
   3  -8   1   17.42    0.39
   3   8   1   16.79    0.58
   3   8   1   17.35    0.74
   4  -8   1    2.91    0.80
   4   8   1    3.10    0.44
   4   8   1    2.34    0.28
   5  -8   1    3.15    0.78
   5   8   1    2.31    0.29
   5   8   1    2.37    0.43
   6  -8   1    0.49    0.50
   6   8   1    0.11    0.16
   6   8   1    0.07    0.16
   7  -8   1    0.16    0.39
   7   8   1    0.26    0.22
   7  -9  -1    0.88    0.41
   7   9  -1    0.18    0.21
  -6  -9   1   -0.02    0.16
   6  -9  -1    0.37    0.39
   6   9  -1    0.05    0.16
   5  -9  -1    0.46    0.42
   5   9  -1    0.11    0.16
   5   9  -1    0.30    0.14
   4  -9  -1    4.42    0.35
   4  -9  -1    5.30    0.68
   4   9  -1    4.99    0.55
   4   9  -1    4.77    0.32
   3  -9  -1    2.96    0.52
   3   9  -1    3.42    0.40
  -3   9   1    3.43    0.19
   3   9  -1    2.81    0.23
   2  -9  -1    3.24    0.25
   2  -9  -1    3.25    0.45
  -2   9   1    3.40    0.18
   2   9  -1    3.63    0.31
   2   9  -1    3.34    0.22
   1  -9  -1    0.37    0.27
   1  -9  -1   -0.04    0.09
  -1   9   1    0.25    0.12
   0  -9   1    0.03    0.05
   0  -9   1   -0.14    0.09
   0  -9  -1    0.02    0.09
   0   9   1   -0.15    0.08
   1  -9   1    3.22    0.12
  -1  -9  -1    3.31    0.21
   1  -9   1    2.98    0.32
   1   9   1    3.02    0.19
   1   9   1    3.20    0.21
   2  -9   1   44.45    1.40
  -2  -9  -1   43.33    0.84
   2   9   1   40.42    1.14
   2   9   1   44.64    0.99
   3  -9   1    0.74    0.56
   3   9   1    0.61    0.16
   3   9   1    0.49    0.19
   4  -9   1   -0.43    0.66
   4   9   1    0.26    0.21
   4   9   1    0.07    0.12
   5  -9   1    0.07    0.63
   5   9   1    0.13    0.21
   5   9   1    0.06    0.12
   6  -9   1   -0.17    0.49
   6   9   1    0.45    0.18
   6   9   1    0.06    0.13
   7  -9   1    0.73    0.55
   7   9   1   -0.02    0.20
   7 -10  -1    0.80    0.39
   7  10  -1    0.56    0.31
   6 -10  -1    0.51    0.39
  -6 -10   1    0.32    0.19
   6  10  -1    0.28    0.25
   5 -10  -1    0.86    0.45
   5  10  -1    0.77    0.27
   5  10  -1    1.06    0.21
   4 -10  -1   11.21    0.90
   4 -10  -1   10.65    0.52
   4  10  -1   11.01    0.70
   4  10  -1   11.75    0.52
   3 -10  -1    2.41    0.27
   3 -10  -1    2.49    0.54
   3  10  -1    2.34    0.25
  -3  10   1    2.03    0.16
   3  10  -1    2.10    0.33
   2 -10  -1    5.49    0.32
   2 -10  -1    5.49    0.55
  -2  10   1    4.94    0.23
   2  10  -1    5.11    0.28
   1 -10  -1   13.49    0.46
   1 -10  -1   14.77    0.64
  -1  10   1   13.74    0.39
   1  10  -1   13.83    0.41
   0 -10   1   -0.11    0.08
   0 -10  -1    0.06    0.09
   0  10   1    0.08    0.07
   0  10  -1   -0.01    0.03
   1 -10   1   59.87    1.01
   1 -10   1   60.85    1.53
  -1 -10  -1   61.73    1.18
   1  10   1   60.98    1.21
   2 -10   1   66.72    1.81
  -2 -10  -1   65.10    1.22
   2  10   1   66.10    1.59
   2  10   1   66.92    1.37
   3 -10   1    1.77    0.64
   3  10   1    2.87    0.29
   3  10   1    2.72    0.35
   4 -10   1    4.88    0.90
   4  10   1    3.79    0.49
   4  10   1    4.18    0.38
   5 -10   1    2.45    0.79
   5  10   1    2.63    0.43
   5  10   1    3.17    0.36
   6 -10   1    0.56    0.57
   6  10   1    0.19    0.15
   6  10   1    0.04    0.17
   7 -10   1    1.02    0.59
   7  10   1    0.77    0.29
  -7 -11   1    0.21    0.20
   7 -11  -1    0.32    0.35
   7  11  -1    0.19    0.26
  -6 -11   1   -0.05    0.15
   6 -11  -1    0.49    0.40
   6  11  -1    0.22    0.22
   5 -11  -1    0.14    0.42
   5  11  -1    0.18    0.19
   5  11  -1    0.21    0.14
   4 -11  -1    7.52    0.42
   4 -11  -1   10.62    0.90
   4  11  -1   10.59    0.67
   4  11  -1   11.59    0.52
   3 -11  -1   23.28    0.73
   3 -11  -1   23.54    1.16
   3  11  -1   23.39    0.92
  -3  11   1   22.62    0.54
   3  11  -1   22.96    0.72
   2 -11  -1   -0.04    0.10
   2 -11  -1    0.43    0.36
  -2  11   1    0.13    0.11
   2  11  -1    0.06    0.07
   1 -11  -1    8.32    0.37
   1 -11  -1    8.47    0.54
  -1  11   1    8.83    0.31
   1  11  -1    8.27    0.32
   0 -11   1   15.23    0.57
   0 -11  -1   15.02    0.43
   0 -11  -1   15.00    0.47
   0  11  -1   14.97    0.38
   1 -11   1    6.54    0.19
  -1 -11  -1    6.54    0.30
   1 -11   1    6.53    0.47
   1  11   1    6.30    0.31
  -2 -11  -1    0.07    0.06
   2 -11   1   -0.04    0.33
   2  11   1    0.25    0.12
   2  11   1   -0.14    0.08
   3 -11   1    4.35    0.78
   3  11   1    4.36    0.31
   3  11   1    3.86    0.36
   4 -11   1    2.85    0.85
   4  11   1    3.59    0.48
   4  11   1    3.11    0.33
   5 -11   1    2.25    0.81
   5  11   1    1.59    0.36
   5  11   1    1.51    0.26
   6 -11   1    1.25    0.62
   6  11   1   -0.05    0.14
   6  11   1    0.37    0.21
   7 -11   1    0.47    0.54
   7  11   1    0.22    0.23
  -7 -12   1    0.28    0.22
   7 -12  -1    0.72    0.42
   7  12  -1    0.20    0.27
   6 -12  -1    1.67    0.49
  -6 -12   1    0.82    0.25
   6  12  -1    0.80    0.31
   6  12  -1    1.16    0.25
   5 -12  -1    3.92    0.67
   5  12  -1    3.52    0.52
   5  12  -1    4.29    0.41
   4 -12  -1    0.39    0.53
   4  12  -1    0.69    0.17
   4  12  -1    0.96    0.27
   3 -12  -1   21.91    0.73
   3 -12  -1   21.01    1.14
   3  12  -1   22.42    0.71
   3  12  -1   23.29    0.93
   2 -12  -1   14.87    0.55
   2 -12  -1   14.91    0.87
  -2  12   1   15.13    0.41
   2  12  -1   14.77    0.51
   1 -12  -1   16.81    0.67
   1 -12  -1   17.15    0.55
   1  12  -1   16.59    0.49
  -1  12   1   17.10    0.45
   0 -12  -1   18.13    0.55
   0 -12   1   18.43    0.66
   0 -12  -1   18.62    0.52
   0  12  -1   18.30    0.45
  -1 -12  -1    0.03    0.09
   1 -12   1    0.25    0.20
   1 -12   1    0.01    0.04
   1  12   1    0.24    0.11
  -2 -12  -1    3.56    0.21
   2 -12   1    3.41    0.49
   2  12   1    3.58    0.26
   2  12   1    3.22    0.28
   3 -12   1   -0.16    0.57
   3  12   1   -0.05    0.10
   4 -12   1   -0.20    0.69
   4  12   1   -0.19    0.18
   4  12   1   -0.03    0.11
   5 -12   1    0.86    0.72
   5  12   1   -0.01    0.11
   5  12   1    0.35    0.19
   6 -12   1    0.47    0.59
   6  12   1    0.16    0.16
   6  12   1    0.48    0.23
  -7 -13   1    0.18    0.21
   7 -13  -1    0.44    0.42
   7  13  -1    0.18    0.25
   6 -13  -1    0.59    0.44
  -6 -13   1    0.42    0.21
   6  13  -1    0.55    0.25
   6  13  -1    0.66    0.21
   5 -13  -1    0.04    0.42
   5  13  -1    0.49    0.22
   5  13  -1    0.32    0.15
   4 -13  -1    0.10    0.17
   4 -13  -1    0.50    0.55
   4  13  -1    0.17    0.16
   4  13  -1    0.02    0.09
   3 -13  -1   10.17    0.90
   3 -13  -1    9.99    0.49
   3  13  -1    9.50    0.45
   2 -13  -1    0.20    0.13
   2 -13  -1    0.08    0.39
   2  13  -1   -0.02    0.06
  -2  13   1   -0.23    0.12
   1 -13  -1    0.55    0.25
   1 -13  -1    0.69    0.15
   1  13  -1    0.38    0.09
  -1  13   1    0.63    0.13
   0 -13  -1    9.64    0.41
   0 -13   1   10.44    0.49
   0 -13  -1   10.23    0.37
   0  13  -1   10.03    0.31
   1 -13   1    0.62    0.23
   1 -13   1    0.58    0.07
  -1 -13  -1    0.85    0.15
   1  13   1    0.43    0.14
  -2 -13  -1    1.92    0.18
   2 -13   1    1.79    0.42
   2  13   1    1.78    0.23
   2  13   1    1.99    0.26
   3 -13   1    3.29    0.76
   3  13   1    2.52    0.29
   4 -13   1    0.49    0.77
   4  13   1    1.47    0.33
   4  13   1    1.42    0.25
   5 -13   1    1.19    0.76
   5  13   1    0.72    0.24
   5  13   1    0.78    0.21
   6 -13   1    0.93    0.65
   6  13   1    0.55    0.25
   6  13   1    0.41    0.19
   7 -14  -1    0.55    0.46
   7  14  -1    0.41    0.30
   6 -14  -1    0.46    0.44
  -6 -14   1    0.15    0.18
   6  14  -1    0.17    0.15
   6  14  -1   -0.02    0.17
   5 -14  -1    2.30    0.60
   5  14  -1    2.46    0.44
   5  14  -1    1.53    0.27
   4 -14  -1    0.14    0.58
   4 -14  -1    0.11    0.17
   4  14  -1   -0.01    0.10
   4  14  -1   -0.09    0.14
   3 -14  -1    1.64    0.61
   3 -14  -1    2.00    0.28
   3  14  -1    2.55    0.29
   2 -14  -1    0.17    0.42
   2 -14  -1    0.35    0.16
  -2  14   1    0.37    0.13
   2  14  -1    0.47    0.12
   1 -14  -1    0.41    0.15
   1 -14  -1    0.32    0.24
   1  14  -1    0.34    0.10
  -1  14   1    0.24    0.12
   0 -14  -1   23.22    0.65
   0 -14   1   24.42    0.81
   0 -14  -1   23.51    0.68
   0  14  -1   23.29    0.56
  -1 -14  -1    8.40    0.36
   1 -14   1    8.79    0.56
   1 -14   1    8.44    0.24
   1  14   1    8.30    0.37
  -2 -14  -1    0.12    0.09
   2 -14   1   -0.02    0.34
   2  14   1   -0.07    0.09
   3 -14   1    1.09    0.69
   3  14   1    0.70    0.18
   4 -14   1   -0.11    0.74
   4  14   1    0.75    0.20
   4  14   1    0.83    0.28
   5 -14   1    0.18    0.70
   5  14   1    1.04    0.23
   5  14   1    0.35    0.19
   6 -14   1    1.43    0.68
   6  14   1    1.04    0.26
   6  14   1    0.80    0.31
   6 -15  -1    2.39    0.59
  -6 -15   1    1.21    0.31
   6  15  -1    1.54    0.31
   6  15  -1    2.07    0.45
   5 -15  -1   -0.03    0.09
   5 -15  -1    0.20    0.46
   5  15  -1    0.02    0.11
   5  15  -1   -0.10    0.14
   4 -15  -1    0.36    0.21
   4 -15  -1    0.26    0.63
   4  15  -1    0.34    0.19
   4  15  -1    0.11    0.12
   3 -15  -1    1.34    0.61
   3 -15  -1    1.13    0.24
   3  15  -1    1.38    0.21
   2 -15  -1    0.59    0.44
   2 -15  -1    0.20    0.14
   2  15  -1    0.01    0.06
  -2  15   1    0.03    0.11
   1 -15  -1   25.33    0.86
   1 -15  -1   25.94    0.76
   1  15  -1   25.91    0.68
  -1  15   1   25.48    0.61
   0 -15  -1   96.62    2.03
   0 -15   1   96.23    2.24
   0 -15  -1   95.68    1.87
   0  15  -1   97.34    1.71
   1 -15   1    0.65    0.24
  -1 -15  -1    0.82    0.16
   1 -15   1    0.75    0.09
   1  15   1    0.39    0.13
   2 -15   1    0.29    0.35
  -2 -15  -1    0.16    0.10
   2  15   1    0.01    0.09
   3 -15   1    3.27    0.78
   3  15   1    3.25    0.32
   3  15   1    3.79    0.43
   4 -15   1   -0.12    0.76
   4  15   1    0.27    0.16
   4  15   1    0.31    0.23
   5 -15   1    0.19    0.09
   5 -15   1   -0.17    0.70
   5  15   1   -0.04    0.13
   5  15   1    0.07    0.19
   6 -15   1    0.96    0.67
   6  15   1   -0.02    0.13
   6  15   1    0.39    0.24
  -6 -16   1   -0.13    0.17
   6 -16  -1    0.60    0.47
   6  16  -1   -0.07    0.14
   6  16  -1   -0.02    0.23
   5 -16  -1    0.73    0.52
   5 -16  -1   -0.05    0.15
   5  16  -1    0.12    0.13
   5  16  -1    0.18    0.20
   4 -16  -1    1.68    0.70
   4 -16  -1    1.72    0.31
   4  16  -1    1.47    0.24
   3 -16  -1    1.14    0.24
   3 -16  -1    1.29    0.62
   3  16  -1    1.69    0.24
   2 -16  -1    1.62    0.26
   2 -16  -1    0.81    0.49
  -2  16   1    1.28    0.15
   2  16  -1    1.16    0.18
   1 -16  -1  122.39    2.34
   1 -16  -1  119.47    2.61
   1  16  -1  121.36    2.19
  -1  16   1  121.98    2.08
   0 -16  -1    0.31    0.14
   0 -16  -1    0.20    0.13
   0  16   1    0.23    0.07
   0  16  -1    0.23    0.07
  -1 -16  -1    0.64    0.16
   1 -16   1    0.57    0.25
   1 -16   1    0.44    0.07
   1  16   1    0.53    0.14
   2 -16   1    0.35    0.37
  -2 -16  -1   -0.10    0.09
   2  16   1   -0.04    0.10
   3 -16   1    1.86    0.73
   3  16   1    1.82    0.31
   3  16   1    2.03    0.28
   4 -16   1    3.48    0.91
   4  16   1    4.40    0.54
   4  16   1    4.19    0.41
   5 -16   1    5.71    1.04
   5 -16   1    4.32    0.44
   5  16   1    5.58    0.43
   5  16   1    5.66    0.54
   6 -16   1    0.87    0.73
   6  16   1    0.60    0.22
   6  16   1    1.30    0.34
  -6 -17   1   -0.07    0.16
   6 -17  -1    0.03    0.44
   6  17  -1    0.28    0.22
   6  17  -1    0.10    0.18
   5 -17  -1    0.34    0.51
   5 -17  -1   -0.04    0.20
   5  17  -1   -0.08    0.11
   4 -17  -1    4.90    0.47
   4 -17  -1    5.24    0.90
   4  17  -1    4.10    0.40
   3 -17  -1    6.91    0.48
   3 -17  -1    6.76    0.85
   3  17  -1    8.35    0.44
   2 -17  -1    0.18    0.15
   2 -17  -1    0.84    0.50
   2  17  -1    0.47    0.13
   1 -17  -1    0.69    0.18
   1 -17  -1    0.45    0.26
   1  17  -1    0.49    0.12
  -1  17   1    0.35    0.13
   0 -17  -1    0.70    0.17
   0 -17   1    0.86    0.20
   0 -17  -1    0.91    0.19
   0  17   1    0.32    0.10
   0  17  -1    0.68    0.11
   1 -17   1    2.17    0.13
   1 -17   1    2.22    0.36
  -1 -17  -1    2.17    0.24
   1  17   1    2.28    0.25
  -2 -17  -1    0.26    0.12
   2 -17   1    0.18    0.38
   2  17   1   -0.01    0.11
   3 -17   1   -0.03    0.68
   3  17   1    0.47    0.16
   3  17   1    0.50    0.22
   4 -17   1    0.91    0.78
   4  17   1    0.13    0.14
   5 -17   1    0.15    0.18
   5 -17   1    0.60    0.79
   5  17   1    0.27    0.17
   5  17   1    0.16    0.22
   6 -17   1    1.26    0.80
   6  17   1    0.05    0.23
   6  17   1    0.18    0.18
   6 -18  -1    1.03    0.53
  -6 -18   1    0.49    0.24
   6  18  -1    1.32    0.29
   5 -18  -1    0.67    0.56
   5 -18  -1    0.53    0.25
   5  18  -1    0.57    0.19
   4 -18  -1    0.66    0.66
   4 -18  -1    1.21    0.29
   4  18  -1    1.82    0.29
   3 -18  -1    4.95    0.79
   3 -18  -1    3.34    0.39
   3  18  -1    3.13    0.33
   2 -18  -1    0.90    0.53
   2 -18  -1    0.62    0.21
   2  18  -1    0.19    0.09
   1 -18  -1   33.13    0.95
   1 -18  -1   32.25    1.02
   1  18  -1   32.98    0.83
  -1  18   1   33.42    0.74
   0 -18   1   15.19    0.67
   0 -18  -1   15.32    0.58
   0 -18  -1   15.11    0.56
   0  18   1   14.40    0.48
   0  18  -1   15.05    0.45
   1 -18   1    7.69    0.26
  -1 -18  -1    7.57    0.39
   1 -18   1    7.31    0.57
   1  18   1    7.27    0.37
   2 -18   1    0.25    0.39
  -2 -18  -1    0.05    0.12
   2  18   1    0.07    0.12
   3 -18   1    1.43    0.75
   3  18   1    0.60    0.18
   4 -18   1    0.72    0.75
   4  18   1    0.32    0.16
   5 -18   1    0.74    0.24
   5 -18   1   -0.14    0.74
   5  18   1    0.62    0.27
   5  18   1    0.78    0.24
   6 -18   1    0.76    0.78
   6  18   1    0.16    0.19
   6  18   1    0.21    0.25
   6 -19  -1    0.85    0.55
   6  19  -1    0.65    0.22
   5 -19  -1    2.39    0.37
   5 -19  -1    2.14    0.67
   5  19  -1    1.72    0.30
   4 -19  -1    3.03    0.39
   4 -19  -1    3.67    0.81
   4  19  -1    3.86    0.40
   3 -19  -1    0.07    0.17
   3 -19  -1   -0.35    0.60
   3  19  -1   -0.02    0.09
   2 -19  -1    1.61    0.58
   2 -19  -1    1.52    0.29
   2  19  -1    0.75    0.16
   1 -19  -1    4.67    0.37
   1 -19  -1    4.19    0.44
   1  19  -1    4.21    0.27
  -1  19   1    4.17    0.25
   0 -19  -1   58.24    1.44
   0 -19   1   58.87    1.61
   0 -19  -1   60.99    1.38
   0  19   1   57.07    1.22
   0  19  -1   60.48    1.19
   1 -19   1    6.54    0.57
  -1 -19  -1    6.62    0.38
   1 -19   1    6.59    0.24
   1  19   1    6.32    0.36
   2 -19   1    3.17    0.55
  -2 -19  -1    3.07    0.29
   2  19   1    2.79    0.31
   3 -19   1    8.52    1.03
   3  19   1    8.55    0.48
   4 -19   1   -1.38    0.67
   4  19   1    0.04    0.14
   5 -19   1   -0.12    0.76
   5 -19   1    0.15    0.18
   5  19   1   -0.01    0.15
   5  19   1    0.10    0.18
   6 -19   1   -0.54    0.68
   6  19   1    0.04    0.16
   6 -20  -1    0.15    0.49
   6  20  -1   -0.05    0.16
   5 -20  -1    0.29    0.54
   5 -20  -1    0.32    0.25
   5  20  -1    0.03    0.12
   4 -20  -1    6.87    0.93
   4 -20  -1    5.87    0.49
   4  20  -1    6.15    0.42
   3 -20  -1    9.81    0.99
   3 -20  -1    9.06    0.55
   3  20  -1    9.13    0.49
   2 -20  -1    7.61    0.80
   2 -20  -1    6.96    0.49
   2  20  -1    7.27    0.39
   1 -20  -1    0.79    0.32
   1 -20  -1    0.20    0.16
  -1  20   1    0.20    0.11
   1  20  -1    0.26    0.10
   0 -20  -1   15.45    0.61
   0 -20   1   15.44    0.70
   0 -20  -1   15.42    0.62
   0  20  -1   15.42    0.48
   0  20   1   15.04    0.52
  -1 -20  -1    0.43    0.17
   1 -20   1    0.53    0.29
   1  20   1    0.25    0.13
   2 -20   1   14.91    0.95
  -2 -20  -1   12.81    0.52
   2  20   1   11.79    0.55
   3 -20   1    2.04    0.78
   3  20   1    1.49    0.26
   4 -20   1   -0.45    0.72
   4  20   1    0.09    0.15
   5 -20   1    2.35    0.86
   5 -20   1    1.60    0.32
   5  20   1    1.97    0.32
   6 -20   1    2.31    0.85
   6 -21  -1    1.23    0.57
   5 -21  -1   -0.25    0.55
   5 -21  -1    0.20    0.22
   5  21  -1    0.02    0.13
   4 -21  -1    0.34    0.21
   4 -21  -1    1.29    0.68
   4  21  -1   -0.08    0.10
   3 -21  -1   29.39    1.49
   3 -21  -1   29.25    1.02
   3  21  -1   28.04    0.93
   2 -21  -1    1.19    0.61
  -2 -21   1    0.39    0.16
   2 -21  -1   -0.01    0.18
   2  21  -1    0.17    0.10
   1 -21  -1    2.29    0.40
   1 -21  -1    3.22    0.37
  -1  21   1    2.62    0.23
   1  21  -1    1.95    0.22
   0 -21  -1    8.40    0.47
   0 -21  -1    8.41    0.48
   0 -21   1    9.04    0.55
   0  21   1    8.81    0.40
   0  21  -1    8.45    0.35
  -1 -21  -1   -0.10    0.14
   1 -21   1    0.21    0.28
   1  21   1   -0.02    0.11
  -2 -21  -1    6.40    0.40
   2 -21   1    7.09    0.74
   2  21   1    6.15    0.40
   3 -21   1    1.06    0.74
   3  21   1    0.80    0.21
   4 -21   1    4.32    0.95
   4  21   1    2.98    0.38
   5 -21   1    0.42    0.23
   5 -21   1    0.98    0.82
   5  21   1    0.52    0.20
   6 -21   1    1.00    0.82
   6 -22  -1    1.22    0.58
   5 -22  -1    0.31    0.22
   5 -22  -1    1.00    0.64
   5  22  -1    0.05    0.14
   4 -22  -1    2.79    0.79
   4 -22  -1    2.69    0.40
   4  22  -1    3.65    0.40
   3 -22  -1   15.99    1.24
   3 -22  -1   15.93    0.76
   3  22  -1   15.90    0.68
  -2 -22   1    1.42    0.23
   2 -22  -1    1.80    0.32
   2 -22  -1    1.88    0.65
   2  22  -1    1.77    0.25
   1 -22  -1    0.32    0.18
   1 -22  -1    0.62    0.35
   1  22  -1    0.09    0.09
  -1  22   1    0.21    0.11
   0 -22  -1    3.18    0.37
   0 -22   1    3.17    0.40
   0  22   1    2.41    0.25
   0  22  -1    2.08    0.21
  -1 -22  -1    0.88    0.22
   1 -22   1    1.34    0.38
   1  22   1    0.59    0.17
   2 -22   1    1.37    0.51
   3 -22   1    4.12    0.86
   3  22   1    4.46    0.43
   4 -22   1    0.25    0.76
   4  22   1    0.32    0.16
   5 -22   1    1.06    0.83
   5 -22   1   -0.02    0.19
   5  22   1    0.14    0.16
   6 -22   1    1.68    0.92
   6 -23  -1    1.86    0.60
   5 -23  -1    0.94    0.66
   5 -23  -1   -0.01    0.23
   5  23  -1    0.28    0.18
   4 -23  -1   12.55    1.22
   4 -23  -1   10.30    0.64
   4  23  -1   10.78    0.60
   3 -23  -1   12.71    1.11
   3 -23  -1   10.59    0.63
   3  23  -1    9.86    0.54
   2 -23  -1    0.13    0.18
   2 -23  -1   -0.16    0.60
   2  23  -1   -0.06    0.08
   1 -23  -1    0.15    0.19
   1  23  -1    0.16    0.09
   0 -23  -1    7.24    0.47
   0 -23   1    7.63    0.54
   0  23  -1    7.16    0.34
   0  23   1    7.36    0.37
   1 -23   1    0.07    0.32
  -1 -23  -1    0.09    0.17
   1  23   1   -0.11    0.10
   2 -23   1    5.05    0.70
   2  23   1    4.74    0.36
   3 -23   1   15.56    1.26
   3  23   1   15.72    0.69
   4 -23   1    2.59    0.92
   4  23   1    2.54    0.36
   5 -23   1    1.22    0.86
   5 -23   1    0.62    0.25
   5  23   1    0.53    0.20
   6 -23   1    0.76    0.89
   6 -24  -1    0.60    0.56
   5 -24  -1    1.61    0.69
   5 -24  -1    0.13    0.24
   5  24  -1    0.20    0.16
   4 -24  -1    4.90    0.53
   4 -24  -1    4.65    0.91
   4  24  -1    4.47    0.46
   3 -24  -1    0.19    0.21
   3 -24  -1   -0.67    0.64
   3  24  -1   -0.06    0.10
   2 -24  -1    2.58    0.39
   2  24  -1    2.25    0.28
   1 -24  -1    0.70    0.25
   1  24  -1    1.01    0.17
   0 -24   1    1.54    0.32
   0 -24  -1    2.18    0.33
   0  24   1    1.77    0.24
   0  24  -1    1.37    0.19
  -1 -24  -1    0.82    0.25
   1 -24   1    1.16    0.40
   1  24   1    1.42    0.23
   2 -24   1   32.80    1.41
   2  24   1   34.88    1.03
   3 -24   1    0.36    0.67
   3  24   1    0.33    0.17
   4 -24   1    1.96    0.36
   4 -24   1    2.52    0.93
   4  24   1    2.15    0.35
   5 -24   1   -0.07    0.78
   5 -24   1   -0.29    0.19
   5  24   1    0.05    0.15
   5 -25  -1    0.43    0.65
   5 -25  -1    0.44    0.28
   5  25  -1    0.21    0.13
   4 -25  -1    1.37    0.73
   4 -25  -1    0.14    0.22
   3 -25  -1    2.34    0.39
   3  25  -1    2.47    0.33
   2 -25  -1    8.12    0.57
   2  25  -1    9.43    0.49
   1 -25  -1   12.08    0.66
   1  25  -1   11.56    0.50
   0 -25  -1    5.05    0.48
   0 -25   1    4.83    0.53
   0  25  -1    4.45    0.28
   0  25   1    5.06    0.33
   1 -25   1    0.84    0.41
  -1 -25  -1    1.20    0.27
   1  25   1    0.63    0.19
   2 -25   1   21.67    1.18
   2  25   1   22.28    0.80
   3 -25   1   13.36    1.20
   3  25   1   12.84    0.65
   4 -25   1    5.80    1.07
   4 -25   1    5.58    0.56
   4  25   1    7.18    0.51
   5 -25   1    0.19    0.83
   5 -25   1   -0.02    0.22
   5  25   1    0.04    0.15
   5 -26  -1    1.21    0.34
   5  26  -1    1.69    0.31
   4 -26  -1    1.09    0.32
   4  26  -1    0.71    0.21
   3 -26  -1    0.34    0.24
   3  26  -1    0.28    0.13
   2 -26  -1    3.26    0.44
   2  26  -1    3.05    0.34
  -1 -26   1    0.16    0.19
   1 -26  -1    0.32    0.23
  -1 -26   1    0.44    0.19
   1  26  -1    0.28    0.11
   0 -26  -1    0.44    0.23
   0 -26   1   -0.28    0.19
   0  26   1    0.15    0.13
  -1 -26  -1    0.20    0.20
   1 -26   1    0.11    0.36
   1  26   1    0.09    0.12
   2 -26   1    5.90    0.76
   2  26   1    5.93    0.42
   3 -26   1    0.84    0.71
   3  26   1    1.94    0.30
   4 -26   1    0.53    0.85
   4 -26   1   -0.19    0.17
   4  26   1    0.40    0.16
   5 -26   1    0.93    0.89
   5 -26   1    0.85    0.31
   5  26   1    1.25    0.29
   5 -27  -1    0.82    0.33
   5  27  -1    0.84    0.25
   4 -27  -1   -0.23    0.21
   4  27  -1    0.05    0.12
   3 -27  -1    0.06    0.19
   3  27  -1    0.27    0.16
   2 -27  -1    1.78    0.35
   2  27  -1    1.69    0.26
  -1 -27   1    1.66    0.33
   1 -27  -1    2.11    0.37
  -1 -27   1    2.38    0.32
   1  27  -1    1.11    0.19
   0 -27  -1    2.29    0.37
   0 -27   1    2.13    0.39
   0  27   1    2.73    0.28
  -1 -27  -1    1.60    0.31
   1 -27   1    1.59    0.47
   1  27   1    1.86    0.26
   2 -27   1    0.27    0.50
   2  27   1    0.27    0.17
   3 -27   1   12.29    1.21
   3  27   1   12.79    0.66
   4 -27   1    0.75    0.87
   4 -27   1    0.08    0.20
   4  27   1    0.07    0.15
   5 -27   1    0.67    0.31
   5 -27   1    2.33    0.96
   5 -28  -1    1.23    0.39
   4 -28  -1   -0.17    0.22
   4  28  -1   -0.15    0.12
   3 -28  -1    0.18    0.23
   3  28  -1    0.11    0.12
   2 -28  -1   -0.11    0.21
   2  28  -1    0.42    0.16
  -1 -28   1   -0.07    0.17
  -1 -28   1    0.09    0.19
   1 -28  -1    0.12    0.21
   1  28  -1    0.07    0.07
   0 -28   1    0.08    0.25
   0 -28  -1    0.21    0.21
  -1 -28  -1    6.59    0.49
   1 -28   1    5.87    0.69
   1  28   1    5.96    0.40
   2 -28   1    2.95    0.64
   2  28   1    3.25    0.36
   3 -28   1    0.20    0.19
   3 -28   1    0.08    0.69
   3  28   1   -0.11    0.13
   4 -28   1   -0.47    0.84
   4 -28   1   -0.04    0.20
   4  28   1    0.00    0.14
   5 -28   1   -0.05    0.22
   5 -28   1    0.83    0.91
   5 -29  -1   -0.02    0.26
   4 -29  -1    3.82    0.53
   4  29  -1    3.47    0.44
   3 -29  -1    0.28    0.24
   3  29  -1    0.18    0.13
   2 -29  -1    0.53    0.27
   2  29  -1    0.56    0.17
  -1 -29   1    0.08    0.18
   1 -29  -1    0.03    0.21
  -1 -29   1   -0.13    0.21
   1  29  -1    0.08    0.08
   0 -29   1    0.07    0.18
   0 -29   1    0.09    0.28
   0 -29  -1    0.04    0.21
  -1 -29  -1    5.17    0.50
   1 -29   1    6.11    0.69
   1  29   1    5.34    0.38
   2 -29   1    4.36    0.73
   2  29   1    5.72    0.43
   3 -29   1    1.74    0.35
   3 -29   1    1.31    0.79
   3  29   1    1.55    0.30
   4 -29   1   -0.08    0.20
   4 -29   1   -0.58    0.85
   4  29   1    0.21    0.16
   5 -29   1    0.64    0.89
   5 -29   1    0.31    0.27
   5 -30  -1   -0.37    0.23
   4 -30  -1    0.04    0.26
   4  30  -1    0.04    0.14
   3 -30  -1   -0.07    0.20
   3  30  -1   -0.07    0.13
   2 -30  -1   -0.07    0.20
   2  30  -1    0.03    0.10
  -1 -30   1   -0.05    0.20
  -1 -30   1   -0.27    0.14
   1 -30  -1    0.33    0.25
   1  30  -1    0.02    0.07
   0 -30   1    0.33    0.31
   0 -30   1   -0.07    0.17
   0 -30  -1    0.27    0.24
  -1 -30  -1    2.23    0.36
   1 -30   1    1.57    0.32
   1 -30   1    0.47    0.40
   1  30   1    1.16    0.24
   2 -30   1    0.17    0.21
   2 -30   1   -0.24    0.45
   2  30   1    0.18    0.15
   3 -30   1   -0.71    0.71
   3 -30   1    0.06    0.21
   3  30   1    0.23    0.17
   4 -30   1    0.12    0.23
   4 -30   1    0.00    0.88
   4  30   1    0.20    0.17
   4 -31  -1    0.34    0.28
   4  31  -1    0.46    0.21
   3 -31  -1    3.27    0.50
   3  31  -1    3.92    0.43
   2 -31  -1    0.43    0.26
   2  31  -1    0.08    0.13
   1 -31  -1   -0.22    0.21
  -1 -31   1   -0.23    0.18
   0 -31  -1    0.11    0.22
   0 -31   1    0.25    0.20
   1 -31   1    3.94    0.65
  -1 -31  -1    3.90    0.46
   1 -31   1    3.00    0.42
   1  31   1    4.15    0.40
   2 -31   1    0.21    0.52
   2 -31   1    0.22    0.23
   2  31   1    0.24    0.16
   3 -31   1    1.86    0.37
   3 -31   1    1.42    0.82
   3  31   1    2.22    0.34
   4 -31   1   -0.06    0.20
   4 -31   1    0.39    0.93
   4  31   1    0.16    0.17
   4 -32  -1    0.76    0.32
   4  32  -1    0.93    0.25
   3 -32  -1    2.05    0.42
   3  32  -1    1.73    0.31
   2 -32  -1    0.97    0.34
   2  32  -1    0.70    0.21
  -1 -32   1    0.10    0.20
   1 -32  -1    0.35    0.27
   0 -32  -1   -0.36    0.18
   0 -32   1    0.03    0.18
  -1 -32  -1    3.06    0.43
   1 -32   1    3.13    0.44
   1  32   1    4.12    0.40
   2 -32   1    1.72    0.36
   2  32   1    2.12    0.33
   3 -32   1    0.95    0.84
   3 -32   1    1.43    0.34
   3  32   1    2.05    0.35
   4 -32   1    0.15    0.23
   4 -32   1   -0.91    0.93
   4 -33  -1    0.34    0.27
   3 -33  -1    0.11    0.28
   3  33  -1    0.15    0.14
   2 -33  -1    0.46    0.29
   2  33  -1    0.27    0.16
  -1 -33   1    0.75    0.27
   1 -33  -1    1.52    0.37
   0 -33  -1    0.78    0.30
   0 -33   1    0.50    0.24
  -1 -33  -1    0.22    0.27
   1 -33   1    0.63    0.26
   2 -33   1    0.93    0.29
   2  33   1    1.22    0.26
   3 -33   1    0.03    0.23
   3  33   1    0.09    0.14
   4 -33   1   -0.44    0.19
   4 -34  -1    0.34    0.31
   3 -34  -1    0.10    0.25
   3  34  -1    0.33    0.17
   2 -34  -1    4.27    0.56
   2  34  -1    3.13    0.38
  -1 -34   1   -0.12    0.22
   1 -34  -1   -0.04    0.23
   0 -34  -1    0.08    0.24
   0 -34   1    0.20    0.23
  -1 -34  -1   -0.10    0.23
   1 -34   1   -0.10    0.18
   2 -34   1    0.31    0.25
   2  34   1    0.14    0.16
   3 -34   1   -0.18    0.20
   3  34   1    0.09    0.16
   3 -35  -1    0.50    0.30
   3  35  -1    0.19    0.16
   2 -35  -1    0.95    0.35
   2  35  -1    1.10    0.24
  -1 -35   1    1.44    0.35
   1 -35  -1    1.09    0.34
   0 -35  -1    0.13    0.25
   0 -35   1    0.44    0.25
  -1 -35  -1    0.02    0.24
   1 -35   1    0.00    0.20
   2 -35   1    0.00    0.23
   2  35   1    0.18    0.17
   3 -35   1    0.22    0.26
   3  35   1    0.24    0.16
   3 -36  -1    0.33    0.30
   3  36  -1    0.24    0.17
   2 -36  -1    0.13    0.27
   1 -36  -1    0.43    0.29
   0 -36  -1    0.66    0.32
   0 -36   1    0.40    0.28
   1 -36   1    1.26    0.34
   2 -36   1    0.43    0.28
   2  36   1    0.56    0.20
   3 -36   1    0.06    0.24
   3  36   1    0.25    0.19
   3 -37  -1   -0.13    0.26
   3  37  -1    0.37    0.22
   2 -37  -1   -0.30    0.25
   1 -37  -1    0.20    0.25
   0 -37  -1    0.16    0.28
   0 -37   1   -0.08    0.23
   1 -37   1    0.09    0.24
   2 -37   1    0.59    0.31
   2 -38  -1    0.78    0.34
   1 -38  -1    0.10    0.27
   0 -38   1    0.28    0.28
   0 -38  -1    0.71    0.33
   1 -38   1   -0.25    0.22
   2 -38   1    0.37    0.31
   2 -39  -1   -0.15    0.27
   1 -39  -1   -0.16    0.27
   0 -39  -1    0.23    0.30
   0 -39   1    0.22    0.29
   1 -39   1   -0.04    0.26
   1 -40  -1    0.10    0.32
   0 -40  -1    0.00    0.28
   0 -40   1   -0.14    0.27
   1 -40   1   -0.05    0.27
   7   0  -2    0.86    0.39
   6   0  -2   11.82    0.87
   5   0  -2    7.94    0.66
   4   0  -2    4.79    0.52
  -4   0   2    3.44    0.27
   3   0  -2   36.20    1.14
  -3   0   2   34.58    0.86
   3   0  -2   34.86    0.80
  -2   0   2   66.56    1.30
   2   0  -2   67.38    1.29
   2   0  -2   65.69    1.60
  -1   0   2  403.83    6.33
   1   0  -2  400.38    6.45
   0   0   2  206.27    3.36
   2   0   2    3.19    0.24
   2   0   2    2.90    0.46
   3   0   2   -0.04    0.42
   3   0   2    0.17    0.13
   4   0   2   30.79    0.82
   4   0   2   29.03    1.54
   5   0   2    3.67    0.66
   6   0   2    5.13    0.76
   7   0   2    1.81    0.50
   7  -1  -2    0.92    0.40
   7   1  -2    0.63    0.37
   6  -1  -2    0.36    0.30
   6   1  -2    0.72    0.35
   5  -1  -2    0.12    0.24
  -5  -1   2    0.33    0.15
  -5   1   2    0.44    0.15
   5   1  -2    0.32    0.26
   4  -1  -2    0.48    0.23
  -4  -1   2    0.67    0.15
   4   1  -2    0.39    0.21
   3  -1  -2   24.37    0.90
  -3  -1   2   25.42    0.70
   3  -1  -2   24.70    0.65
   3   1  -2   24.47    0.61
   3   1  -2   25.56    0.92
   2  -1  -2   22.59    0.58
   2  -1  -2   20.95    0.70
  -2  -1   2   20.91    0.58
   2   1  -2   21.54    0.73
   2   1  -2   21.48    0.54
  -2   1   2   21.36    0.57
  -1  -1   2  162.24    2.71
   1  -1  -2  160.49    2.76
  -1   1   2  164.55    2.72
   0  -1   2   56.56    1.09
   0   1   2   56.83    1.22
   0   1   2   55.95    1.10
   1  -1   2    1.22    0.20
   1  -1   2    1.48    0.24
   1   1   2    1.62    0.22
   1   1   2    1.27    0.20
   2  -1   2   62.71    1.20
   2  -1   2   59.64    1.70
   2   1   2   61.54    1.21
   2   1   2   60.14    1.65
   3  -1   2    2.53    0.23
   3  -1   2    1.33    0.52
   3   1   2    2.48    0.53
   3   1   2    2.07    0.23
   4  -1   2    3.24    0.75
   4  -1   2    2.89    0.28
   4   1   2    1.36    0.57
   4   1   2    2.15    0.25
   5  -1   2   -0.01    0.45
   5   1   2   -0.79    0.30
   6  -1   2    0.66    0.44
   6   1   2    0.11    0.35
   7  -1   2    1.12    0.47
   7  -2  -2    1.12    0.41
   7   2  -2    0.50    0.39
   6  -2  -2    0.08    0.28
   6   2  -2    0.39    0.30
   5  -2  -2    1.42    0.38
  -5  -2   2    0.95    0.20
   5   2  -2    0.95    0.33
  -5   2   2    0.71    0.17
   4  -2  -2   -0.33    0.16
  -4  -2   2    0.14    0.10
  -4   2   2   -0.02    0.09
   4   2  -2   -0.14    0.11
   3  -2  -2   15.50    0.50
  -3  -2   2   14.56    0.51
   3  -2  -2   15.28    0.67
   3   2  -2   15.31    0.68
   3   2  -2   14.39    0.42
   2  -2  -2   56.87    1.15
  -2  -2   2   55.60    1.15
   2  -2  -2   56.83    1.40
  -2   2   2   55.01    1.13
   2   2  -2   56.46    1.43
   1  -2  -2  585.90   11.09
  -1  -2   2  586.44    9.21
   1  -2  -2  604.52    9.44
  -1   2   2  599.61    9.23
   0  -2   2    6.32    0.26
   0   2   2    6.12    0.31
   1  -2   2   35.10    0.99
   1  -2   2   35.21    0.77
   1   2   2   36.05    0.81
   1   2   2   36.48    0.99
   2  -2   2    1.85    0.20
   2  -2   2    1.33    0.39
   2   2   2    1.72    0.21
   2   2   2    1.52    0.37
   3  -2   2   14.07    0.45
   3  -2   2   14.21    1.07
   3   2   2   14.65    0.50
   3   2   2   14.85    0.96
   4  -2   2   28.75    1.55
   4  -2   2   30.01    0.77
   4   2   2   30.89    0.84
   4   2   2   29.24    1.35
   5  -2   2    9.13    0.96
   5   2   2    9.70    0.48
   5   2   2    9.90    0.90
   6  -2   2    0.84    0.46
   6   2   2   -0.09    0.28
   7  -2   2    1.12    0.45
   7   2   2    1.03    0.34
   7  -3  -2    1.66    0.50
   7   3  -2    1.56    0.47
   6  -3  -2    0.73    0.33
  -6  -3   2    0.20    0.16
   6   3  -2    0.57    0.30
   5  -3  -2    0.31    0.27
  -5  -3   2    0.29    0.14
   5   3  -2    0.35    0.25
  -5   3   2    0.54    0.16
   4  -3  -2   11.50    0.68
  -4  -3   2   11.91    0.51
   4  -3  -2   11.47    0.47
   4   3  -2   11.53    0.68
  -4   3   2   12.21    0.48
   3  -3  -2   31.52    0.79
   3  -3  -2   31.88    1.03
  -3  -3   2   32.55    0.82
   3   3  -2   32.13    1.07
  -3   3   2   25.85    0.75
  -2  -3   2   17.90    0.52
   2  -3  -2   17.26    0.62
   2   3  -2   18.43    0.67
   1  -3  -2  985.96   15.34
  -1  -3   2 1000.00   15.18
   1  -3  -2  947.78   18.43
  -1   3   2  970.53   14.98
   0  -3  -2   55.66    1.11
   0  -3   2   56.21    1.06
   0   3   2   54.98    1.10
   1  -3   2    0.32    0.18
   1  -3   2    0.21    0.15
   1   3   2    0.32    0.25
   1   3   2    0.07    0.16
   2  -3   2    1.65    0.19
   2  -3   2    1.71    0.41
   2   3   2    1.91    0.22
   3  -3   2    0.62    0.13
   3  -3   2    0.61    0.52
   3   3   2    0.29    0.37
   3   3   2    0.17    0.12
   4  -3   2    0.85    0.16
   4  -3   2    0.22    0.63
   4   3   2   -0.12    0.38
   4   3   2    0.85    0.19
   5  -3   2    6.02    0.85
   5   3   2    5.78    0.38
   5   3   2    6.30    0.74
   6  -3   2    0.67    0.48
   6   3   2    1.26    0.41
   7  -3   2    0.51    0.41
   7   3   2    1.25    0.41
   7  -4  -2    0.09    0.33
   7   4  -2    0.12    0.21
  -6  -4   2    1.00    0.25
   6  -4  -2    1.15    0.39
   6   4  -2    0.60    0.30
   5  -4  -2   -0.25    0.21
  -5  -4   2    0.37    0.14
   5   4  -2    0.03    0.22
  -4  -4   2    7.30    0.39
   4  -4  -2    6.87    0.56
   4  -4  -2    7.81    0.40
   4   4  -2    7.80    0.56
  -4   4   2    7.35    0.38
   3  -4  -2    1.72    0.21
  -3  -4   2    1.57    0.20
   3  -4  -2    1.99    0.30
   3   4  -2    1.65    0.28
  -3   4   2    1.57    0.18
   2  -4  -2    4.07    0.30
  -2  -4   2    4.43    0.25
   2   4  -2    4.17    0.31
   1  -4  -2  387.82    7.34
   1  -4  -2  395.22    6.33
  -1  -4   2  382.59    6.15
  -1   4   2  395.89    6.17
   0  -4  -2   27.05    0.66
   0  -4   2   27.32    0.61
   0   4   2   26.86    0.67
   1  -4   2   20.50    0.51
   1  -4   2   19.30    0.70
   1   4   2   19.82    0.70
   1   4   2   18.95    0.57
   2  -4   2    0.57    0.35
   2  -4   2    0.71    0.15
   2   4   2    0.61    0.16
   3  -4   2    0.68    0.13
   3  -4   2    0.84    0.54
   3   4   2    1.07    0.37
   3   4   2    0.90    0.18
   4  -4   2   12.23    1.13
   4   4   2   11.98    0.51
   4   4   2   11.25    0.86
   5  -4   2    0.20    0.56
   5   4   2    0.24    0.15
   5   4   2    0.66    0.36
   6  -4   2    0.94    0.52
   6   4   2    0.39    0.26
   7  -4   2    3.89    0.67
   7   4   2    3.85    0.58
   7  -5  -2    0.14    0.33
   7   5  -2    0.01    0.22
  -6  -5   2    2.64    0.35
   6  -5  -2    2.54    0.53
   6   5  -2    2.82    0.50
   5  -5  -2    0.58    0.31
  -5  -5   2    0.25    0.13
   5   5  -2    0.57    0.22
  -4  -5   2   25.21    0.79
   4  -5  -2   24.98    0.75
   4  -5  -2   25.71    1.05
   4   5  -2   24.39    1.05
  -4   5   2   26.81    0.75
   3  -5  -2    0.07    0.16
   3  -5  -2   -0.04    0.11
  -3  -5   2    0.06    0.08
   3   5  -2   -0.03    0.09
  -3   5   2   -0.03    0.07
   2  -5  -2   17.84    0.62
  -2  -5   2   17.63    0.53
   2  -5  -2   18.17    0.55
  -2   5   2   17.13    0.50
   2   5  -2   17.88    0.69
  -1  -5   2   40.97    0.87
   1  -5  -2   41.17    0.94
   1  -5  -2   41.72    0.92
  -1   5   2   40.58    0.87
   0  -5   2  109.07    1.86
   0  -5  -2  108.95    1.96
   0   5   2  105.58    1.91
   1  -5   2   47.69    1.26
   1  -5   2   48.29    0.93
   1   5   2   47.16    1.17
   1   5   2   48.28    1.03
   2  -5   2   11.40    0.38
   2  -5   2   13.02    0.80
   2   5   2   11.90    0.46
   2   5   2   10.67    0.67
   3  -5   2    0.95    0.55
   3  -5   2    0.43    0.11
   3   5   2    0.15    0.13
   3   5   2   -0.13    0.26
   4  -5   2   37.84    1.82
   4   5   2   39.66    1.44
   4   5   2   37.74    1.01
   5  -5   2    2.36    0.75
   5   5   2    2.40    0.49
   5   5   2    2.56    0.31
   6  -5   2    2.00    0.62
   6   5   2    2.40    0.45
   7  -5   2    1.18    0.47
   7   5   2    1.20    0.37
   7  -6  -2    0.59    0.36
   7   6  -2    0.38    0.25
   6  -6  -2    3.69    0.59
  -6  -6   2    2.98    0.36
   6   6  -2    3.89    0.61
   5  -6  -2    0.15    0.29
  -5  -6   2    0.27    0.12
   5   6  -2    0.24    0.20
   4  -6  -2    1.75    0.36
  -4  -6   2    1.75    0.24
   4  -6  -2    1.84    0.25
   4   6  -2    1.63    0.35
  -4   6   2    1.55    0.21
  -3  -6   2    0.53    0.13
   3  -6  -2    0.82    0.17
   3  -6  -2    0.52    0.21
  -3   6   2    0.80    0.14
   3   6  -2    0.57    0.18
   2  -6  -2    0.94    0.16
  -2  -6   2    0.76    0.14
   2  -6  -2    0.69    0.16
  -2   6   2    0.58    0.12
   1  -6  -2   27.21    0.68
  -1  -6   2   27.34    0.65
   1  -6  -2   27.05    0.70
   0  -6   2  224.61    3.62
   0  -6  -2  226.66    3.78
   0   6   2  221.91    3.68
   1  -6   2   53.90    1.02
  -1  -6  -2   54.92    1.10
   1  -6   2   54.05    1.39
   1   6   2   53.63    1.12
   1   6   2   53.77    1.27
   2  -6   2    9.01    0.32
   2  -6   2    8.43    0.67
   2   6   2    8.61    0.54
   2   6   2    8.14    0.39
   3  -6   2    0.54    0.57
   3  -6   2    0.12    0.09
   3   6   2   -0.07    0.23
   3   6   2   -0.06    0.12
   4  -6   2   -0.62    0.62
   4   6   2    0.01    0.12
   4   6   2    0.06    0.31
   5  -6   2    3.44    0.84
   5   6   2    3.77    0.55
   5   6   2    3.72    0.38
   6  -6   2    0.64    0.54
   6   6   2    0.26    0.25
   7  -6   2    1.45    0.53
   7   6   2    1.47    0.39
   7  -7  -2    0.11    0.32
   7   7  -2    0.32    0.26
   6  -7  -2    0.31    0.30
  -6  -7   2    0.03    0.16
   6   7  -2    0.10    0.20
  -5  -7   2    1.23    0.22
   5  -7  -2    1.81    0.43
   5   7  -2    1.04    0.29
   4  -7  -2    1.55    0.24
   4  -7  -2    1.58    0.37
  -4  -7   2    1.64    0.24
   4   7  -2    1.26    0.31
  -4   7   2    1.36    0.20
  -3  -7   2    0.03    0.08
   3  -7  -2    0.07    0.05
   3  -7  -2   -0.04    0.17
  -3   7   2   -0.01    0.08
   3   7  -2    0.12    0.14
  -2  -7   2    0.70    0.12
   2  -7  -2    0.68    0.16
   2  -7  -2    0.66    0.18
  -2   7   2    0.72    0.12
   1  -7  -2    6.63    0.33
  -1  -7   2    6.21    0.27
   1  -7  -2    6.45    0.27
   0  -7  -2    8.70    0.35
   0  -7   2    8.34    0.42
   0  -7   2    8.55    0.29
   0   7   2    7.93    0.39
   1  -7   2   27.42    0.89
  -1  -7  -2   27.35    0.67
   1  -7   2   27.39    0.60
   1   7   2   27.54    0.71
   1   7   2   25.87    0.70
   2  -7   2   21.57    0.95
   2  -7   2   20.90    0.50
   2   7   2   21.28    0.77
   2   7   2   21.55    0.65
   3  -7   2    3.85    0.21
   3  -7   2    3.28    0.70
   3   7   2    3.02    0.38
   3   7   2    4.62    0.31
   4  -7   2    3.85    0.85
   4   7   2    4.62    0.55
   4   7   2    4.20    0.34
   5  -7   2    1.08    0.72
   5   7   2    1.38    0.25
   5   7   2    1.22    0.35
   6  -7   2    0.35    0.52
   6   7   2    0.38    0.22
   7  -7   2    1.60    0.56
   7   7   2    1.22    0.32
   7  -8  -2    0.59    0.41
   7   8  -2    0.42    0.28
   6  -8  -2    0.51    0.35
  -6  -8   2    0.38    0.17
   6   8  -2    0.99    0.31
  -5  -8   2    0.71    0.19
   5  -8  -2    0.66    0.33
   5   8  -2    0.68    0.25
   4  -8  -2    5.13    0.58
  -4  -8   2    4.56    0.33
   4  -8  -2    4.31    0.39
   4   8  -2    5.12    0.49
  -4   8   2    5.19    0.32
  -3  -8   2   12.18    0.49
   3  -8  -2   12.42    0.65
  -3   8   2   12.84    0.44
   3   8  -2   11.93    0.64
   2  -8  -2    1.99    0.26
   2  -8  -2    1.73    0.23
  -2  -8   2    1.76    0.20
  -2   8   2    1.72    0.19
   1  -8  -2    4.76    0.24
   1  -8  -2    5.27    0.30
  -1  -8   2    4.99    0.25
   0  -8   2    5.30    0.22
   0  -8   2    4.82    0.34
   0  -8  -2    5.03    0.28
   0   8   2    5.04    0.33
   1  -8   2   51.71    1.38
   1  -8   2   49.94    0.96
  -1  -8  -2   51.88    1.08
   1   8   2   49.87    1.10
   1   8   2   50.59    1.11
   2  -8   2    0.69    0.35
   2  -8   2    0.63    0.14
   2   8   2    1.17    0.22
   2   8   2    0.92    0.19
   3  -8   2   28.36    1.50
   3   8   2   27.53    0.80
   4  -8   2    3.82    0.85
   4   8   2    3.08    0.34
   4   8   2    3.22    0.46
   5  -8   2    0.23    0.65
   5   8   2   -0.03    0.22
   5   8   2   -0.05    0.13
   6  -8   2    1.07    0.57
   6   8   2    0.75    0.27
   6   8   2    0.08    0.14
   7  -9  -2    0.29    0.34
   7   9  -2    0.15    0.24
  -6  -9   2    3.55    0.40
   6  -9  -2    3.67    0.58
   6   9  -2    3.38    0.56
  -5  -9   2    0.34    0.16
   5  -9  -2    0.70    0.34
   5   9  -2    0.36    0.22
   4  -9  -2    0.10    0.28
   4  -9  -2    0.17    0.19
  -4  -9   2    0.06    0.10
   4   9  -2   -0.07    0.11
   3  -9  -2    1.61    0.34
   3  -9  -2    0.85    0.21
  -3  -9   2    1.23    0.19
  -3   9   2    0.93    0.16
   3   9  -2    0.93    0.24
   2  -9  -2    0.39    0.15
  -2  -9   2    0.15    0.09
   2  -9  -2    0.43    0.20
  -2   9   2    0.14    0.12
   1  -9  -2   27.36    0.69
  -1  -9   2   28.06    0.68
   1  -9  -2   27.39    0.74
   0  -9   2   -0.16    0.07
   0  -9   2    0.05    0.05
   0  -9  -2   -0.02    0.08
   0   9   2   -0.20    0.15
  -1  -9  -2   27.31    0.70
   1  -9   2   27.88    0.60
   1  -9   2   27.56    0.94
   1   9   2   27.47    0.74
   1   9   2   27.47    0.67
   2  -9   2    2.49    0.20
   2  -9   2    3.06    0.46
   2   9   2    2.74    0.28
   2   9   2    2.29    0.27
   3  -9   2    2.06    0.65
   3   9   2    1.95    0.26
   4  -9   2    0.33    0.72
   4   9   2    0.43    0.26
   4   9   2    0.31    0.16
   5  -9   2    9.52    1.16
   5   9   2    9.97    0.53
   5   9   2    9.62    0.69
   6  -9   2   -0.31    0.52
   6   9   2   -0.02    0.15
   6   9   2    0.57    0.27
  -7 -10   2    0.11    0.21
   7 -10  -2    1.15    0.41
   7  10  -2    0.50    0.30
   6 -10  -2    1.18    0.41
  -6 -10   2    1.32    0.26
   6  10  -2    1.97    0.44
  -5 -10   2    0.12    0.13
   5 -10  -2    0.44    0.33
   5  10  -2    0.13    0.15
   4 -10  -2    6.58    0.66
   4 -10  -2    6.04    0.43
  -4 -10   2    6.23    0.40
   4  10  -2    6.77    0.54
   3 -10  -2    2.50    0.39
   3 -10  -2    2.44    0.29
  -3 -10   2    2.36    0.26
  -3  10   2    2.33    0.23
   2 -10  -2   18.67    0.63
  -2 -10   2   19.13    0.59
   2 -10  -2   18.83    0.73
  -2  10   2   18.66    0.54
  -1 -10   2   12.53    0.41
   1 -10  -2   12.20    0.48
   1 -10  -2   12.69    0.43
  -1  10   2   11.65    0.43
   0 -10   2    2.26    0.15
   0 -10  -2    2.39    0.24
   0 -10   2    2.08    0.27
   0  10   2    2.05    0.24
   1 -10   2    2.94    0.35
  -1 -10  -2    3.24    0.22
   1 -10   2    3.22    0.17
   1  10   2    2.98    0.19
   1  10   2    3.14    0.29
  -2 -10  -2  145.23    2.57
   2 -10   2  148.80    2.37
   2 -10   2  145.83    3.33
   2  10   2  146.82    2.67
   2  10   2  146.43    3.05
   3 -10   2    1.48    0.66
   3  10   2    0.64    0.21
   3  10   2    0.72    0.19
   4 -10   2    1.19    0.76
   4  10   2    1.13    0.23
   4  10   2    1.29    0.32
   5 -10   2   -0.06    0.65
   5  10   2    0.27    0.15
   5  10   2    0.56    0.23
   6 -10   2    0.20    0.58
   6  10   2    0.00    0.14
   6  10   2    0.33    0.25
  -7 -11   2    0.13    0.22
   7 -11  -2    1.16    0.43
   7  11  -2    0.39    0.27
  -6 -11   2    5.81    0.54
   6 -11  -2    4.84    0.65
   6  11  -2    4.97    0.67
  -5 -11   2   -0.05    0.10
   5 -11  -2    0.20    0.32
   5  11  -2    0.11    0.17
   4 -11  -2   -0.05    0.05
  -4 -11   2    0.11    0.12
   4 -11  -2    0.10    0.33
   4  11  -2    0.27    0.18
   3 -11  -2    6.76    0.60
  -3 -11   2    6.79    0.39
   3 -11  -2    6.92    0.42
  -3  11   2    7.28    0.33
   2 -11  -2    6.59    0.38
   2 -11  -2    7.14    0.51
  -2 -11   2    7.18    0.35
  -2  11   2    6.33    0.33
  -1 -11   2   12.13    0.41
   1 -11  -2   12.03    0.47
   1 -11  -2   12.86    0.50
  -1  11   2   12.07    0.45
   0 -11   2    0.66    0.10
   0 -11   2    0.34    0.14
   0 -11  -2    0.54    0.14
   0  11   2    0.60    0.18
   1 -11   2    0.45    0.21
   1 -11   2    0.37    0.08
  -1 -11  -2    0.56    0.13
   1  11   2    0.05    0.14
   1  11   2    0.41    0.09
  -2 -11  -2   50.31    1.07
   2 -11   2   49.10    1.54
   2  11   2   49.92    1.16
   2  11   2   50.23    1.27
   3 -11   2    0.22    0.62
   3  11   2    0.18    0.15
   3  11   2    0.14    0.17
   4 -11   2    3.38    0.90
   4  11   2    2.74    0.42
   4  11   2    2.56    0.32
   5 -11   2    0.43    0.72
   5  11   2    0.33    0.22
   5  11   2    0.20    0.15
   6 -11   2   -0.42    0.56
   6  11   2    0.53    0.21
   6  11   2    0.90    0.27
  -7 -12   2    1.75    0.37
   7 -12  -2    2.36    0.55
   7  12  -2    1.93    0.48
   6 -12  -2    0.52    0.34
  -6 -12   2    0.36    0.19
   6  12  -2    0.80    0.29
  -5 -12   2    1.32    0.26
   5 -12  -2    1.90    0.46
   5  12  -2    1.23    0.33
   4 -12  -2    0.06    0.34
  -4 -12   2    0.54    0.17
   4 -12  -2    0.22    0.18
   4  12  -2    0.33    0.19
   3 -12  -2   -0.04    0.15
   3 -12  -2   -0.10    0.27
  -3 -12   2   -0.09    0.08
  -3  12   2    0.11    0.14
   2 -12  -2    5.31    0.36
   2 -12  -2    5.85    0.50
  -2 -12   2    5.07    0.30
  -2  12   2    5.18    0.32
   1 -12  -2    6.73    0.38
   1 -12  -2    6.92    0.45
  -1 -12   2    6.55    0.30
  -1  12   2    7.39    0.37
   0 -12  -2    1.63    0.21
   0 -12   2    1.32    0.23
   0 -12   2    1.40    0.14
   0  12   2    1.71    0.23
   1 -12   2   10.70    0.33
   1 -12   2   11.02    0.61
  -1 -12  -2   11.31    0.43
   1  12   2   10.91    0.47
  -2 -12  -2    0.07    0.06
   2 -12   2    0.53    0.34
   2 -12   2    0.09    0.10
   2  12   2    0.22    0.14
   2  12   2   -0.05    0.09
   3 -12   2    0.44    0.61
   3  12   2   -0.11    0.13
   3  12   2    0.08    0.16
   4 -12   2    4.00    0.97
   4  12   2    4.23    0.41
   5 -12   2    0.24    0.73
   5  12   2    0.66    0.23
   5  12   2    0.58    0.21
   6 -12   2    1.40    0.76
   6  12   2    0.25    0.19
   6  12   2    0.43    0.19
   7 -13  -2    0.43    0.37
   7  13  -2    0.02    0.26
  -6 -13   2    0.54    0.22
   6 -13  -2    1.11    0.41
   6  13  -2    0.74    0.32
   5 -13  -2    4.09    0.60
  -5 -13   2    4.59    0.45
   5  13  -2    3.35    0.53
  -4 -13   2    2.21    0.30
   4 -13  -2    1.71    0.46
   4 -13  -2    2.35    0.33
   3 -13  -2    2.70    0.32
   3 -13  -2    2.90    0.47
  -3 -13   2    2.64    0.29
   2 -13  -2    0.54    0.30
   2 -13  -2    0.79    0.19
  -2 -13   2    0.68    0.15
  -2  13   2    0.55    0.19
   1 -13  -2    0.11    0.12
   1 -13  -2    0.24    0.23
  -1 -13   2    0.02    0.07
  -1  13   2   -0.16    0.16
   0 -13   2    0.75    0.20
   0 -13   2    0.77    0.11
   0 -13  -2    0.72    0.16
   0  13   2    0.42    0.19
  -1 -13  -2   28.00    0.77
   1 -13   2   29.17    0.63
   1 -13   2   29.80    1.04
   1  13   2   29.81    0.81
   2 -13   2    0.31    0.33
  -2 -13  -2    0.16    0.08
   2  13   2    0.05    0.10
   2  13   2    0.10    0.14
   3 -13   2    0.57    0.63
   3  13   2    0.04    0.14
   3  13   2    0.48    0.19
   4 -13   2    7.29    1.08
   4  13   2    7.56    0.47
   5 -13   2    2.85    0.90
   5  13   2    3.18    0.39
   5  13   2    3.31    0.49
   6 -13   2    0.54    0.73
   6  13   2    0.32    0.22
   6  13   2    0.13    0.16
   6 -14  -2    0.59    0.39
  -6 -14   2    0.05    0.17
   6  14  -2    0.28    0.23
   5 -14  -2    1.28    0.27
   5 -14  -2    1.86    0.48
  -5 -14   2    2.08    0.31
   5  14  -2    1.60    0.38
   4 -14  -2    4.11    0.61
   4 -14  -2    2.73    0.36
  -4 -14   2    3.74    0.38
   3 -14  -2    2.27    0.32
   3 -14  -2    1.85    0.46
  -3 -14   2    2.12    0.28
   3  14  -2    1.75    0.24
   2 -14  -2    1.39    0.25
  -2 -14   2    1.61    0.21
   2 -14  -2    2.21    0.41
  -2  14   2    1.80    0.24
  -1 -14   2    0.25    0.09
   1 -14  -2    0.19    0.25
   1 -14  -2    0.24    0.14
  -1  14   2    0.07    0.17
   0 -14   2   20.42    0.80
   0 -14   2   20.85    0.55
   0 -14  -2   21.65    0.68
   0  14   2   21.27    0.65
  -1 -14  -2    2.91    0.27
   1 -14   2    3.12    0.17
   1 -14   2    3.28    0.40
   1  14   2    3.59    0.31
   2 -14   2    3.73    0.53
  -2 -14  -2    3.80    0.25
   2  14   2    3.16    0.33
   2  14   2    4.09    0.30
   3 -14   2    3.36    0.74
   3  14   2    4.01    0.38
   3  14   2    4.50    0.40
   4 -14   2    3.89    0.93
   4  14   2    7.00    0.46
   4  14   2    8.01    0.41
   5 -14   2    4.37    0.99
   5  14   2    5.01    0.48
   5  14   2    4.24    0.45
   6 -14   2    0.13    0.75
   6  14   2    0.23    0.18
   6  14   2    0.56    0.23
   6 -15  -2    2.32    0.54
  -6 -15   2    1.89    0.34
   5 -15  -2    0.18    0.13
  -5 -15   2    1.03    0.23
   5 -15  -2    0.91    0.42
   4 -15  -2    8.11    0.52
  -4 -15   2    7.65    0.47
   4 -15  -2    7.72    0.75
  -3 -15   2    6.99    0.42
   3 -15  -2    8.16    0.74
   3 -15  -2    7.37    0.47
   3  15  -2    6.98    0.40
   2 -15  -2    0.64    0.19
   2 -15  -2    0.67    0.39
  -2 -15   2    0.95    0.17
  -2  15   2    0.89    0.22
   1 -15  -2    0.67    0.28
  -1 -15   2    0.18    0.08
   1 -15  -2    0.20    0.15
  -1  15   2    0.12    0.17
   0 -15   2   40.75    1.25
   0 -15   2   39.24    0.87
   0 -15  -2   40.92    1.04
   0  15   2   40.03    0.97
   1 -15   2   23.81    0.95
   1 -15   2   24.50    0.56
  -1 -15  -2   23.75    0.71
   1  15   2   23.66    0.73
  -2 -15  -2    0.29    0.10
   2 -15   2    0.38    0.37
   2  15   2    0.31    0.13
   2  15   2    0.33    0.17
   3 -15   2    0.38    0.62
   3  15   2    0.30    0.18
   3  15   2    0.19    0.16
   4 -15   2    0.16    0.76
   4  15   2    0.12    0.20
   4  15   2    0.17    0.16
   5 -15   2    7.95    1.16
   5  15   2    7.03    0.49
   5  15   2    5.91    0.55
   6 -15   2    1.08    0.86
   6  15   2    0.23    0.20
   6 -16  -2    0.79    0.43
  -6 -16   2    0.50    0.21
   5 -16  -2    0.57    0.24
   5 -16  -2    1.17    0.44
  -5 -16   2    0.58    0.19
   4 -16  -2    3.41    0.58
   4 -16  -2    2.68    0.37
  -4 -16   2    3.17    0.37
  -3 -16   2    1.91    0.26
   3 -16  -2    2.15    0.32
   3 -16  -2    1.47    0.51
   3  16  -2    1.53    0.23
  -2 -16   2    0.74    0.17
   2 -16  -2    0.65    0.39
   2 -16  -2    0.23    0.17
   2  16  -2    0.42    0.12
  -2  16   2    0.31    0.19
   1 -16  -2   12.49    0.67
   1 -16  -2   11.74    0.54
  -1 -16   2   12.58    0.46
  -1  16   2   12.72    0.49
   0 -16  -2    0.69    0.20
   0 -16   2    0.52    0.11
   0 -16   2    0.98    0.22
   0  16   2    0.59    0.18
   1 -16   2    0.15    0.23
   1 -16   2    0.25    0.07
  -1 -16  -2    0.32    0.14
   1  16   2    0.00    0.14
  -2 -16  -2    6.03    0.33
   2 -16   2    7.01    0.69
   2  16   2    5.75    0.39
   3 -16   2    3.10    0.78
   3  16   2    3.14    0.35
   3  16   2    3.38    0.40
   4 -16   2    0.07    0.78
   4  16   2    0.28    0.23
   4  16   2    0.44    0.18
   5 -16   2    1.43    0.83
   6 -16   2    1.87    0.91
   6  16   2    0.65    0.24
  -6 -17   2    0.07    0.17
   6 -17  -2    0.58    0.42
  -5 -17   2    0.42    0.19
   5 -17  -2    0.59    0.26
   5 -17  -2    0.46    0.41
  -4 -17   2    4.06    0.42
   4 -17  -2    6.03    0.72
   4 -17  -2    4.70    0.48
   4  17  -2    4.72    0.44
  -3 -17   2    1.72    0.26
   3 -17  -2    1.59    0.56
   3 -17  -2    1.52    0.30
   3  17  -2    1.95    0.26
   2 -17  -2    0.31    0.41
  -2 -17   2    0.21    0.12
   2 -17  -2    0.03    0.16
  -2  17   2    0.13    0.19
   2  17  -2    0.20    0.08
  -1 -17   2    2.40    0.24
   1 -17  -2    2.71    0.33
   1 -17  -2    2.76    0.40
  -1  17   2    2.62    0.28
   0 -17  -2    0.53    0.18
   0 -17   2    0.37    0.18
   0 -17   2    0.14    0.07
   0  17   2    0.30    0.17
   1 -17   2   12.67    0.73
  -1 -17  -2   13.50    0.54
   1 -17   2   12.72    0.38
   1  17   2   13.55    0.55
   2 -17   2    2.46    0.52
  -2 -17  -2    2.42    0.26
   2  17   2    2.56    0.29
   3 -17   2    0.10    0.62
   3  17   2    0.18    0.17
   4 -17   2    8.47    1.14
   4  17   2    7.77    0.49
   5 -17   2    1.89    0.87
   5  17   2    2.87    0.39
   6 -17   2    1.81    0.91
   6  17   2    0.75    0.25
   6 -18  -2    1.13    0.44
  -6 -18   2    0.42    0.20
   5 -18  -2    0.98    0.43
   5 -18  -2    0.73    0.29
  -5 -18   2    0.30    0.18
   4 -18  -2    1.45    0.31
  -4 -18   2    2.30    0.32
   4 -18  -2    3.41    0.61
   4  18  -2    1.99    0.30
  -3 -18   2   10.64    0.54
   3 -18  -2   10.90    0.95
   3 -18  -2   10.59    0.59
   3  18  -2   10.60    0.52
   2 -18  -2    8.20    0.51
  -2 -18   2    8.13    0.43
   2 -18  -2    9.96    0.87
   2  18  -2    9.49    0.44
  -2  18   2    9.06    0.42
  -1 -18   2    0.93    0.17
   1 -18  -2    1.28    0.25
  -1  18   2    1.37    0.22
   0 -18   2    0.15    0.15
   0 -18   2    0.05    0.07
   0 -18  -2   -0.19    0.13
   0  18   2   -0.01    0.15
   1 -18   2    0.75    0.11
   1 -18   2    0.78    0.30
  -1 -18  -2    1.06    0.21
   1  18   2    0.97    0.20
   2 -18   2    3.68    0.60
  -2 -18  -2    3.83    0.29
   2  18   2    4.06    0.38
   3 -18   2    4.27    0.82
   3  18   2    3.90    0.40
   4 -18   2    0.34    0.84
   5 -18   2    1.00    0.85
   5  18   2    0.64    0.24
   6 -18   2    2.51    0.95
  -6 -19   2    0.16    0.18
   6 -19  -2    1.02    0.43
  -5 -19   2    0.07    0.13
   5 -19  -2    0.11    0.23
   5 -19  -2   -0.11    0.38
  -4 -19   2    0.35    0.19
   4 -19  -2    0.88    0.47
   4 -19  -2    0.73    0.25
   4  19  -2    0.46    0.16
   3 -19  -2    0.33    0.22
   3 -19  -2   -0.46    0.51
  -3 -19   2    0.35    0.17
   3  19  -2    0.14    0.10
   2 -19  -2   14.90    0.69
  -2 -19   2   15.17    0.59
   2 -19  -2   14.04    0.98
   2  19  -2   15.77    0.59
   1 -19  -2   -0.09    0.15
  -1 -19   2    0.09    0.09
  -1  19   2    0.14    0.17
   0 -19   2    1.80    0.32
   0 -19   2    1.40    0.17
   0 -19  -2    1.27    0.25
   0  19   2    1.67    0.25
  -1 -19  -2    0.55    0.17
   1 -19   2    0.70    0.30
   1  19   2   -0.09    0.14
   2 -19   2    2.03    0.50
  -2 -19  -2    2.80    0.30
   2  19   2    2.03    0.29
   3 -19   2    0.71    0.65
   3  19   2    0.62    0.20
   4 -19   2    0.97    0.81
   4  19   2    0.92    0.23
   5 -19   2    1.88    0.90
   5  19   2    1.27    0.28
   6 -19   2    0.41    0.85
  -6 -20   2    0.82    0.26
   6 -20  -2    1.52    0.46
   5 -20  -2    0.22    0.23
   5 -20  -2    0.43    0.41
  -5 -20   2    0.28    0.17
   4 -20  -2    0.82    0.49
  -4 -20   2    0.24    0.16
   4 -20  -2    0.27    0.22
   4  20  -2    0.78    0.20
   3 -20  -2    0.41    0.23
   3 -20  -2    1.00    0.56
  -3 -20   2    0.29    0.16
   3  20  -2    0.38    0.15
  -2 -20   2    0.52    0.16
   2 -20  -2    0.60    0.23
   2  20  -2    0.78    0.16
   1 -20  -2    2.55    0.34
  -1 -20   2    2.38    0.26
  -1  20   2    2.61    0.29
   0 -20   2    0.71    0.13
   0 -20   2    0.71    0.24
   0 -20  -2    0.79    0.21
   0  20   2    1.21    0.22
  -1 -20  -2    0.30    0.17
   1 -20   2   -0.05    0.26
   1  20   2    0.27    0.17
  -2 -20  -2   17.94    0.64
   2 -20   2   16.71    1.00
   2  20   2   15.84    0.66
   3 -20   2    1.81    0.68
   3  20   2    1.35    0.26
   4 -20   2    3.61    0.97
   4  20   2    3.14    0.39
   5 -20   2    0.96    0.85
   5  20   2    0.69    0.23
   6 -20   2    0.68    0.84
   6 -21  -2    1.44    0.48
   5 -21  -2   -0.05    0.42
   5 -21  -2   -0.09    0.23
  -5 -21   2   -0.04    0.13
  -4 -21   2    0.18    0.19
   4 -21  -2    1.00    0.52
   4 -21  -2   -0.04    0.21
   4  21  -2    0.24    0.14
   3 -21  -2    9.41    0.60
  -3 -21   2    9.55    0.52
   3  21  -2    8.96    0.50
   2 -21  -2    4.47    0.45
  -2 -21   2    3.85    0.31
   2  21  -2    3.56    0.29
   1 -21  -2    0.69    0.23
  -1 -21   2    0.46    0.14
  -1  21   2    0.69    0.23
   0 -21   2    5.08    0.27
   0 -21   2    5.04    0.46
   0 -21  -2    5.36    0.41
   0  21   2    3.92    0.35
   1 -21   2   13.48    0.81
  -1 -21  -2   13.02    0.58
   1  21   2   12.09    0.55
  -2 -21  -2    8.33    0.45
   2 -21   2    8.89    0.84
   2  21   2    8.35    0.49
   3 -21   2    5.40    0.84
   3  21   2    4.15    0.43
   4 -21   2    2.15    0.90
   4  21   2    2.73    0.38
   5 -21   2    0.93    0.86
   5  21   2    1.03    0.27
   6 -21   2    0.38    0.87
  -5 -22   2    0.24    0.19
   5 -22  -2    0.07    0.23
   4 -22  -2    2.41    0.39
  -4 -22   2    2.97    0.40
   4  22  -2    2.84    0.36
   3 -22  -2   11.58    0.67
  -3 -22   2   11.07    0.57
   3  22  -2   10.77    0.56
   2 -22  -2    2.75    0.40
  -2 -22   2    3.50    0.35
   2  22  -2    3.48    0.34
  -1 -22   2    0.12    0.11
   1 -22  -2    0.15    0.20
  -1  22   2    0.12    0.18
   0 -22   2    3.24    0.23
   0 -22  -2    3.81    0.40
   0 -22   2    3.31    0.45
  -1 -22  -2    2.59    0.34
   1 -22   2    2.06    0.43
   1  22   2    2.57    0.31
   2 -22   2   46.65    1.69
   2  22   2   44.99    1.24
   3 -22   2    5.84    0.87
   3  22   2    6.87    0.47
   4 -22   2   -0.20    0.80
   4  22   2   -0.21    0.14
   5 -22   2    0.98    0.90
   5  22   2    0.07    0.16
   5 -23  -2    0.06    0.24
  -5 -23   2   -0.03    0.15
   4 -23  -2    0.84    0.29
  -4 -23   2    1.05    0.26
   4  23  -2    1.00    0.23
  -3 -23   2    2.04    0.31
   3 -23  -2    1.56    0.33
   3  23  -2    1.76    0.27
  -2 -23   2    4.84    0.36
   2 -23  -2    4.89    0.50
   2  23  -2    5.21    0.35
  -1 -23   2    2.98    0.30
   1 -23  -2    2.78    0.39
  -1  23   2    2.70    0.30
   0 -23  -2   -0.36    0.14
   0 -23   2   -0.24    0.16
   0 -23   2    0.02    0.08
   0  23   2    0.13    0.07
  -1 -23  -2    0.58    0.22
   1 -23   2    0.76    0.36
   1  23   2    0.51    0.20
   2 -23   2   32.87    1.42
   2  23   2   33.37    1.04
   3 -23   2    6.23    0.87
   3  23   2    6.04    0.44
   4 -23   2   -0.06    0.85
   4  23   2    0.74    0.23
   5 -23   2    2.35    0.94
   5  23   2    1.14    0.29
  -5 -24   2    0.06    0.16
   5 -24  -2    0.15    0.25
   4 -24  -2    1.12    0.31
  -4 -24   2    0.53    0.23
   4  24  -2    0.76    0.20
   3 -24  -2    1.53    0.34
  -3 -24   2    1.53    0.28
   3  24  -2    1.36    0.24
   2 -24  -2    0.63    0.27
  -2 -24   2    0.67    0.18
   2  24  -2    0.49    0.14
  -1 -24   2    0.25    0.13
   1 -24  -2    0.31    0.22
   0 -24  -2    4.86    0.47
   0 -24   2    5.71    0.31
   0 -24   2    5.15    0.51
   1 -24   2   17.94    0.98
  -1 -24  -2   17.64    0.74
   1  24   2   18.39    0.70
   2 -24   2   21.10    1.15
   2  24   2   21.97    0.82
   3 -24   2    0.90    0.62
   3  24   2    0.55    0.21
   4 -24   2    0.73    0.88
   5 -24   2    0.31    0.89
   5  24   2    0.37    0.21
   5 -25  -2    0.27    0.28
  -5 -25   2    0.15    0.21
  -4 -25   2    3.10    0.41
   4 -25  -2    2.06    0.39
   4  25  -2    2.38    0.34
  -3 -25   2    0.57    0.19
   3 -25  -2    0.39    0.24
   3  25  -2    0.35    0.14
   2 -25  -2    2.11    0.38
  -2 -25   2    2.34    0.31
   2  25  -2    2.36    0.29
  -1 -25   2    0.88    0.28
   1 -25  -2    0.69    0.28
  -1 -25   2    0.64    0.17
   0 -25   2    2.31    0.40
   0 -25  -2    2.26    0.36
  -1 -25  -2   11.61    0.62
   1 -25   2   12.24    0.86
   1  25   2   11.79    0.57
   2 -25   2    5.12    0.73
   2  25   2    5.78    0.42
   3 -25   2    0.70    0.60
   3  25   2    0.19    0.16
   4 -25   2    0.92    0.91
   4  25   2    1.44    0.29
   5 -25   2    0.76    0.91
  -5 -26   2    0.57    0.26
   5 -26  -2    0.47    0.30
   4 -26  -2    1.10    0.32
  -4 -26   2    1.03    0.28
   4  26  -2    0.81    0.23
   3 -26  -2    3.27    0.45
  -3 -26   2    3.09    0.39
   3  26  -2    3.52    0.39
   2 -26  -2    1.01    0.30
  -2 -26   2    0.65    0.20
   2  26  -2    1.24    0.21
  -1 -26   2    0.16    0.13
   1 -26  -2    0.45    0.25
  -1 -26   2    0.41    0.24
   0 -26  -2   -0.10    0.20
   0 -26   2   -0.12    0.21
   0  26   2    0.20    0.10
  -1 -26  -2   17.71    0.77
   1 -26   2   17.44    1.00
   1  26   2   18.85    0.73
   2 -26   2    0.91    0.48
   2  26   2    0.88    0.23
   3 -26   2   -0.34    0.58
   3  26   2    0.12    0.15
   4 -26   2   -0.26    0.87
   4  26   2    0.20    0.17
   5 -26   2    0.54    0.27
   5 -26   2   -0.13    0.95
   5 -27  -2    1.13    0.36
   4 -27  -2    0.63    0.29
  -4 -27   2    1.07    0.29
  -3 -27   2    2.09    0.33
   3 -27  -2    3.10    0.46
   3  27  -2    2.34    0.32
  -2 -27   2    0.16    0.15
   2 -27  -2   -0.05    0.21
   2  27  -2    0.17    0.12
  -1 -27   2    3.40    0.34
   1 -27  -2    3.09    0.44
  -1 -27   2    3.78    0.51
   0 -27  -2    1.81    0.33
   0 -27   2    1.58    0.38
   0  27   2    2.01    0.27
   1 -27   2    5.77    0.69
  -1 -27  -2    5.09    0.50
   1  27   2    5.08    0.40
   2 -27   2    3.79    0.69
   2  27   2    4.93    0.47
   3 -27   2    0.02    0.62
   3  27   2    0.73    0.22
   4 -27   2   -0.47    0.86
   4  27   2    0.15    0.16
   5 -27   2   -0.65    0.89
   5 -27   2    0.39    0.27
   5 -28  -2    0.35    0.30
  -4 -28   2    3.65    0.46
   4 -28  -2    4.42    0.56
   3 -28  -2    2.37    0.41
  -3 -28   2    2.57    0.36
   3  28  -2    2.42    0.34
  -2 -28   2    1.89    0.30
   2 -28  -2    1.85    0.38
  -1 -28   2    2.12    0.41
   1 -28  -2    2.31    0.39
  -1 -28   2    2.07    0.28
   0 -28   2    1.41    0.38
   0 -28  -2    1.65    0.34
   0  28   2    1.85    0.27
   1 -28   2    4.46    0.64
  -1 -28  -2    4.32    0.49
   1  28   2    4.06    0.40
   2 -28   2    3.61    0.68
   2  28   2    3.25    0.39
   3 -28   2   -0.85    0.56
   3  28   2    0.14    0.17
   4 -28   2   -0.18    0.91
   4  28   2    0.51    0.22
   5 -28   2    0.42    0.26
   5 -28   2    0.47    0.99
   5 -29  -2    1.39    0.40
  -4 -29   2    7.91    0.59
   3 -29  -2    0.82    0.31
  -3 -29   2    0.96    0.26
   3  29  -2    0.99    0.22
   2 -29  -2    0.14    0.23
  -2 -29   2    0.27    0.16
  -1 -29   2    4.33    0.57
   1 -29  -2    5.93    0.60
  -1 -29   2    4.58    0.36
   0 -29  -2    5.55    0.55
   0 -29   2    4.93    0.63
   0  29   2    5.71    0.40
  -1 -29  -2    4.24    0.49
   1 -29   2    4.37    0.65
   1  29   2    3.46    0.40
   2 -29   2    0.12    0.45
   2  29   2    0.17    0.16
   3 -29   2   -0.09    0.64
   3  29   2    0.05    0.17
   4 -29   2   -0.19    0.88
   4  29   2    0.19    0.18
   4 -30  -2    1.58    0.39
  -4 -30   2    2.15    0.38
  -3 -30   2    2.66    0.39
   3 -30  -2    2.57    0.44
  -2 -30   2    0.24    0.18
   2 -30  -2    0.36    0.27
  -1 -30   2    6.40    0.61
   1 -30  -2    7.27    0.58
   0 -30   2    5.01    0.64
   0 -30  -2    4.98    0.53
  -1 -30  -2    1.66    0.34
   1 -30   2    0.39    0.40
   1  30   2    0.86    0.23
   2 -30   2    0.08    0.48
   2  30   2   -0.04    0.15
   3 -30   2   -0.41    0.63
   3  30   2    0.04    0.19
   4 -30   2    0.46    0.96
   4  30   2    0.18    0.18
   4 -31  -2    1.80    0.42
  -4 -31   2    1.66    0.35
   3 -31  -2    3.08    0.48
  -3 -31   2    4.32    0.48
   2 -31  -2    0.84    0.32
  -2 -31   2    0.36    0.19
  -1 -31   2    2.87    0.49
   1 -31  -2    3.11    0.46
   0 -31  -2    0.08    0.22
   0 -31   2    0.81    0.39
   1 -31   2    0.37    0.40
  -1 -31  -2    0.36    0.26
   1  31   2    0.59    0.20
   2 -31   2    1.49    0.60
   2  31   2    0.79    0.23
   3 -31   2   -0.42    0.66
   3  31   2    0.33    0.20
   4 -31   2    0.31    0.23
   4 -31   2    0.35    1.01
   4 -32  -2    0.34    0.30
   3 -32  -2    2.41    0.44
  -3 -32   2    2.53    0.39
   2 -32  -2   -0.13    0.22
  -2 -32   2    0.20    0.17
  -1 -32   2    1.40    0.39
   1 -32  -2    1.80    0.40
   0 -32  -2    0.62    0.29
   0 -32   2   -0.30    0.31
  -1 -32  -2    0.39    0.27
   1 -32   2   -0.32    0.38
   1  32   2    0.16    0.17
   2 -32   2   -0.42    0.48
   2  32   2    0.02    0.17
   3 -32   2   -0.79    0.66
   3  32   2    0.21    0.16
   4 -32   2   -0.02    1.02
   4 -32   2   -0.08    0.21
   4 -33  -2    0.19    0.31
  -3 -33   2    0.19    0.20
   3 -33  -2    0.16    0.28
  -2 -33   2    0.31    0.21
   2 -33  -2    0.02    0.25
   1 -33  -2    1.25    0.35
  -1 -33   2    1.72    0.42
   0 -33  -2    1.01    0.32
   0 -33   2    0.14    0.37
   1 -33   2   -0.21    0.40
  -1 -33  -2   -0.07    0.22
   1  33   2   -0.05    0.14
   2 -33   2   -0.56    0.49
   2  33   2    0.09    0.17
   3 -33   2   -0.72    0.70
   3  33   2    0.28    0.18
   4 -34  -2    0.78    0.36
   3 -34  -2    0.60    0.33
  -3 -34   2    0.13    0.21
   2 -34  -2    0.27    0.29
  -2 -34   2    0.29    0.21
   1 -34  -2   -0.05    0.25
  -1 -34   2    0.39    0.21
   0 -34   2    0.16    0.37
   0 -34  -2   -0.04    0.24
  -1 -34  -2    0.55    0.29
   1 -34   2    0.05    0.43
   2 -34   2   -0.20    0.53
   2  34   2    0.30    0.21
   3 -34   2    0.09    0.77
   3 -34   2    0.36    0.25
   3  34   2    0.33    0.21
   3 -35  -2    0.18    0.27
  -3 -35   2    0.38    0.22
   2 -35  -2    1.10    0.38
  -1 -35   2    1.42    0.33
   1 -35  -2    0.98    0.34
   0 -35  -2   -0.22    0.22
   0 -35   2    0.34    0.23
   1 -35   2   -0.37    0.43
   2 -35   2   -1.04    0.52
   2  35   2    0.19    0.18
   3 -35   2    0.16    0.25
   3 -35   2   -0.81    0.78
   3 -36  -2   -0.04    0.27
  -3 -36   2    0.21    0.23
   2 -36  -2    0.13    0.30
   1 -36  -2    1.15    0.37
   0 -36   2    0.61    0.26
   0 -36  -2   -0.33    0.24
   1 -36   2    0.34    0.25
   2 -36   2    0.73    0.30
   2  36   2    1.18    0.31
   3 -36   2    0.05    0.24
   2 -37  -2    0.06    0.28
   1 -37  -2    0.19    0.30
   0 -37  -2    0.20    0.31
   0 -37   2    0.10    0.23
   1 -37   2    0.39    0.26
   2 -37   2    0.32    0.27
   2  37   2    0.33    0.21
   2 -38  -2    0.21    0.31
   1 -38  -2   -0.16    0.26
   0 -38   2    0.42    0.28
   0 -38  -2    0.40    0.36
   1 -38   2    0.55    0.29
   2 -38   2    0.06    0.27
   1 -39  -2    0.38    0.34
   0 -39  -2    0.58    0.35
   0 -39   2    0.20    0.27
   1 -39   2    0.29    0.27
   0 -40  -2    0.20    0.30
   0 -40   2   -0.14    0.25
   7   0  -3   -0.10    0.27
   6   0  -3    0.11    0.22
   5   0  -3   -0.06    0.19
  -5   0   3    0.29    0.14
   4   0  -3    0.15    0.16
  -4   0   3    0.01    0.09
  -3   0   3   -0.06    0.07
   3   0  -3   -0.11    0.08
   3   0  -3    0.05    0.08
   2   0  -3   -0.01    0.07
  -2   0   3    0.02    0.07
   2   0  -3    0.02    0.04
  -1   0   3    0.05    0.09
   0   0   3   -0.06    0.12
   0   0   3   -0.11    0.06
   1   0   3   -0.02    0.09
   1   0   3   -0.03    0.17
   2   0   3   -0.20    0.35
   2   0   3    0.16    0.19
   3   0   3    0.25    0.17
   3   0   3   -0.63    0.47
   4   0   3    0.26    0.16
   4   0   3   -0.74    0.60
   5   0   3   -0.12    0.45
   6   0   3    0.56    0.44
   7  -1  -3    0.37    0.33
   7   1  -3    0.11    0.33
   6  -1  -3    0.44    0.32
   6   1  -3    0.35    0.28
   5  -1  -3    0.22    0.25
  -5  -1   3    0.26    0.15
  -5   1   3    0.21    0.14
   5   1  -3    0.42    0.26
  -4  -1   3    3.58    0.34
   4  -1  -3    3.47    0.44
   4   1  -3    4.26    0.50
  -4   1   3    3.32    0.33
   3  -1  -3    5.51    0.41
  -3  -1   3    5.22    0.33
   3  -1  -3    4.56    0.29
   3   1  -3    5.01    0.40
  -3   1   3    4.76    0.30
  -2  -1   3   16.95    0.56
   2  -1  -3   16.96    0.64
  -2   1   3   17.35    0.56
  -1  -1   3    2.72    0.24
  -1   1   3    3.21    0.23
   0  -1   3    1.75    0.21
   0   1   3    2.10    0.24
   0   1   3    1.71    0.19
   1  -1   3   16.26    0.55
   1   1   3   16.00    0.62
   1   1   3   16.60    0.57
   2  -1   3    0.69    0.39
   2  -1   3    1.03    0.23
   2   1   3    0.34    0.36
   2   1   3    1.27    0.24
   3  -1   3    9.40    0.45
   3  -1   3   10.03    0.92
   3   1   3   10.14    0.47
   3   1   3   10.15    0.88
   4  -1   3   44.57    1.10
   4  -1   3   46.59    1.99
   4   1   3   46.97    1.96
   4   1   3   46.70    1.14
   5  -1   3    0.32    0.54
   5   1   3    0.19    0.45
   6  -1   3    1.57    0.54
   6   1   3    1.98    0.55
   7  -2  -3    0.22    0.31
   7   2  -3   -0.17    0.30
  -6  -2   3    0.06    0.14
   6  -2  -3    0.07    0.24
   6   2  -3    0.15    0.27
   5  -2  -3    0.14    0.21
  -5  -2   3    0.28    0.15
  -5   2   3    0.05    0.09
   5   2  -3    0.11    0.21
  -4  -2   3    0.63    0.17
   4  -2  -3    0.06    0.13
   4   2  -3    0.32    0.20
  -4   2   3    0.15    0.11
  -3  -2   3    0.61    0.15
   3  -2  -3    0.72    0.15
   3  -2  -3    0.39    0.16
  -3   2   3    0.68    0.16
   3   2  -3    0.62    0.18
   2  -2  -3    0.75    0.16
  -2  -2   3    0.76    0.14
   2  -2  -3    0.76    0.15
  -2   2   3    0.70    0.14
  -1  -2   3   21.49    0.62
   1  -2  -3   21.66    0.64
  -1   2   3   21.43    0.63
   0  -2   3    1.33    0.18
   0  -2   3    1.19    0.18
   0   2   3    1.17    0.15
   0   2   3    1.29    0.21
   1  -2   3    0.07    0.17
   1  -2   3    0.48    0.18
   1   2   3    0.17    0.18
   1   2   3    0.43    0.19
   2  -2   3   28.85    0.78
   2  -2   3   28.04    1.13
   2   2   3   29.34    0.81
   3  -2   3    2.26    0.27
   3  -2   3    3.79    0.71
   3   2   3    2.79    0.31
   3   2   3    1.77    0.57
   4  -2   3   81.48    2.68
   4  -2   3   80.87    1.65
   4   2   3   81.72    2.60
   4   2   3   80.51    1.71
   5  -2   3    8.63    1.06
   5   2   3    9.37    0.95
   6  -2   3    2.24    0.63
   6   2   3    1.93    0.52
   7  -3  -3    0.96    0.42
   7   3  -3    1.60    0.49
   6  -3  -3    0.56    0.29
  -6  -3   3    0.33    0.19
   6   3  -3    0.23    0.27
   5  -3  -3    1.63    0.38
  -5  -3   3    1.23    0.24
  -5   3   3    0.50    0.18
   5   3  -3    1.70    0.40
   4  -3  -3    0.17    0.17
   4  -3  -3    0.33    0.14
  -4  -3   3    0.24    0.10
   4   3  -3    0.78    0.24
  -4   3   3    0.09    0.09
   3  -3  -3   14.15    0.53
  -3  -3   3   13.62    0.53
   3  -3  -3   14.63    0.66
  -3   3   3   14.35    0.54
   3   3  -3   13.66    0.67
  -2  -3   3    2.72    0.25
   2  -3  -3    2.44    0.25
   2  -3  -3    2.75    0.25
  -2   3   3    2.97    0.24
   1  -3  -3   28.22    0.77
  -1  -3   3   28.90    0.74
  -1   3   3   29.33    0.77
   0  -3   3   21.65    0.71
   0  -3   3   21.70    0.61
   0   3   3   21.47    0.65
   0   3   3   21.80    0.60
   1  -3   3    6.76    0.37
   1  -3   3    7.07    0.47
   1   3   3    6.67    0.40
   1   3   3    6.57    0.45
   2  -3   3    7.43    0.40
   2  -3   3    7.45    0.67
   2   3   3    6.65    0.60
   2   3   3    7.94    0.43
   3  -3   3    2.43    0.67
   3  -3   3    3.12    0.29
   3   3   3    3.20    0.33
   3   3   3    2.34    0.58
   4  -3   3    0.50    0.70
   4   3   3    0.34    0.19
   4   3   3    0.32    0.53
   5  -3   3   16.64    1.37
   5   3   3   15.09    0.65
   5   3   3   16.53    1.12
   6  -3   3    2.92    0.69
   6   3   3    2.61    0.56
   7  -4  -3    1.76    0.50
   7   4  -3    1.04    0.43
   6  -4  -3    2.99    0.54
  -6  -4   3    2.77    0.37
   6   4  -3    2.58    0.51
   5  -4  -3    0.97    0.32
  -5  -4   3    1.16    0.22
  -5   4   3    1.07    0.23
   5   4  -3    1.19    0.33
   4  -4  -3    5.24    0.45
  -4  -4   3    5.42    0.36
   4  -4  -3    4.70    0.34
   4   4  -3    5.31    0.58
   3  -4  -3    0.82    0.20
   3  -4  -3    0.45    0.14
  -3  -4   3    0.43    0.13
  -3   4   3    0.50    0.14
   3   4  -3    0.31    0.15
  -2  -4   3    0.52    0.14
   2  -4  -3    0.41    0.13
   2  -4  -3    0.52    0.14
  -2   4   3    0.53    0.14
   1  -4  -3   22.19    0.66
  -1  -4   3   20.37    0.60
  -1   4   3   20.90    0.63
   0  -4   3   25.37    0.82
   0  -4  -3   26.34    0.73
   0  -4   3   26.03    0.68
   0   4   3   26.26    0.66
   0   4   3   25.90    0.73
   1  -4   3    3.60    0.29
   1  -4   3    4.46    0.41
   1   4   3    3.92    0.35
   1   4   3    4.08    0.34
   2  -4   3   39.58    0.92
   2  -4   3   40.25    1.33
   2   4   3   40.33    1.01
   2   4   3   37.99    1.28
   3  -4   3    0.06    0.59
   3  -4   3    0.25    0.17
   3   4   3   -0.20    0.15
   3   4   3   -0.11    0.43
   4  -4   3    3.97    0.85
   4   4   3    3.09    0.33
   4   4   3    2.31    0.58
   5  -4   3    4.63    0.92
   5   4   3    3.41    0.62
   5   4   3    3.77    0.39
   6  -4   3    1.58    0.60
   6   4   3    0.43    0.34
   7  -5  -3    1.22    0.40
   7   5  -3    0.78    0.40
   6  -5  -3    0.56    0.30
  -6  -5   3    0.37    0.19
   6   5  -3    0.30    0.29
   5  -5  -3    0.61    0.28
  -5  -5   3    0.54    0.17
   5   5  -3    0.81    0.31
   4  -5  -3    0.06    0.18
   4  -5  -3    0.56    0.18
  -4  -5   3    0.25    0.13
   4   5  -3    0.22    0.19
  -4   5   3    0.27    0.14
   3  -5  -3   14.40    0.66
  -3  -5   3   13.78    0.54
   3   5  -3   13.29    0.69
   2  -5  -3   34.19    0.91
   2  -5  -3   34.34    0.97
  -2  -5   3   33.53    0.88
  -2   5   3   34.81    0.87
  -1  -5   3   27.58    0.72
   1  -5  -3   26.97    0.76
  -1   5   3   26.48    0.73
   0  -5  -3   18.82    0.60
   0  -5   3   18.84    0.68
   0  -5   3   18.08    0.54
   0   5   3   18.24    0.62
   0   5   3   18.48    0.50
   1  -5   3   71.02    1.78
   1  -5   3   71.08    1.40
   1   5   3   71.61    1.48
   1   5   3   70.55    1.65
   2  -5   3   59.26    1.73
   2  -5   3   59.48    1.23
   2   5   3   60.52    1.34
   2   5   3   61.24    1.67
   3  -5   3   28.75    0.74
   3  -5   3   24.97    1.42
   3   5   3   29.12    0.85
   4  -5   3    5.54    0.93
   4   5   3    5.37    0.39
   4   5   3    5.97    0.71
   5  -5   3    3.37    0.86
   5   5   3    3.46    0.58
   5   5   3    3.09    0.36
   6  -5   3    1.49    0.61
   6   5   3    1.03    0.37
   7  -6  -3    0.60    0.36
   7   6  -3    0.34    0.35
   6  -6  -3    1.01    0.35
  -6  -6   3    0.43    0.18
   6   6  -3    0.54    0.30
  -5  -6   3   -0.11    0.10
   5  -6  -3    0.04    0.23
   5   6  -3   -0.17    0.17
   4  -6  -3    1.11    0.23
  -4  -6   3    1.38    0.22
   4  -6  -3    1.41    0.31
  -4   6   3    0.94    0.19
   4   6  -3    0.94    0.28
   3  -6  -3    0.16    0.08
  -3  -6   3    0.09    0.08
   3  -6  -3   -0.05    0.10
  -3   6   3   -0.07    0.07
  -2  -6   3    0.06    0.08
   2  -6  -3    0.11    0.08
   2  -6  -3    0.03    0.11
  -2   6   3   -0.03    0.09
  -1  -6   3   21.31    0.61
   1  -6  -3   20.31    0.65
  -1   6   3   20.70    0.64
   0  -6   3    7.47    0.42
   0  -6   3    7.12    0.32
   0  -6  -3    8.13    0.37
   0   6   3    7.72    0.42
   1  -6   3   53.41    1.12
   1  -6   3   53.30    1.46
   1   6   3   53.24    1.20
   1   6   3   52.48    1.31
   2  -6   3    5.07    0.54
   2  -6   3    4.63    0.34
   2   6   3    5.35    0.53
   2   6   3    4.90    0.37
   3  -6   3    0.51    0.18
   3  -6   3    0.34    0.62
   3   6   3    0.27    0.19
   3   6   3    0.87    0.27
   4  -6   3    7.99    1.06
   4   6   3    8.39    0.81
   4   6   3    8.32    0.48
   5  -6   3    0.03    0.66
   5   6   3   -0.04    0.28
   5   6   3    0.36    0.18
   6  -6   3    0.62    0.62
   6   6   3    0.65    0.29
   7  -7  -3    2.19    0.52
   7   7  -3    2.11    0.55
  -6  -7   3    0.28    0.18
   6  -7  -3    0.63    0.32
   6   7  -3   -0.12    0.24
  -5  -7   3   -0.03    0.12
   5  -7  -3   -0.06    0.21
   5   7  -3   -0.12    0.17
  -4  -7   3    0.04    0.09
   4  -7  -3    0.00    0.17
   4  -7  -3    0.08    0.14
   4   7  -3   -0.08    0.15
  -4   7   3    0.04    0.13
   3  -7  -3    2.40    0.29
  -3  -7   3    2.46    0.27
   3  -7  -3    2.85    0.35
  -3   7   3    2.19    0.25
   2  -7  -3    1.64    0.23
  -2  -7   3    1.35    0.19
   2  -7  -3    1.87    0.23
  -2   7   3    1.30    0.20
  -1  -7   3   11.78    0.43
   1  -7  -3   11.42    0.48
  -1   7   3   10.94    0.46
   0  -7   3    0.53    0.11
   0  -7   3    0.64    0.17
   0  -7  -3    0.52    0.13
   0   7   3    0.59    0.21
   1  -7   3   32.60    0.79
   1  -7   3   32.51    1.06
   1   7   3   32.09    0.87
   1   7   3   31.47    0.91
   2  -7   3    6.59    0.36
   2  -7   3    6.79    0.65
   2   7   3    6.49    0.60
   2   7   3    5.82    0.38
   3  -7   3   -0.09    0.14
   3  -7   3    0.01    0.59
   3   7   3   -0.18    0.30
   3   7   3   -0.23    0.15
   4  -7   3   -0.03    0.72
   4   7   3   -0.22    0.14
   4   7   3   -0.12    0.32
   5  -7   3    0.28    0.66
   5   7   3    0.20    0.17
   5   7   3    0.15    0.29
   6  -7   3    1.97    0.75
   6   7   3    2.81    0.48
   7  -8  -3    2.11    0.52
   7   8  -3    1.64    0.47
   6  -8  -3   -0.01    0.28
  -6  -8   3    0.06    0.15
   6   8  -3    0.24    0.24
  -5  -8   3    0.24    0.14
   5  -8  -3   -0.01    0.23
   5   8  -3    0.28    0.23
   4  -8  -3    1.86    0.37
  -4  -8   3    1.90    0.27
   4  -8  -3    1.46    0.27
   4   8  -3    1.63    0.36
  -4   8   3    1.52    0.23
   3  -8  -3   -0.04    0.11
  -3  -8   3    0.03    0.07
   3  -8  -3    0.07    0.12
  -3   8   3   -0.01    0.11
  -2  -8   3    1.31    0.19
   2  -8  -3    1.17    0.18
   2  -8  -3    1.07    0.20
  -1  -8   3   37.13    0.90
   1  -8  -3   37.78    0.98
  -1   8   3   37.36    0.93
   0  -8   3   13.83    0.62
   0  -8   3   13.50    0.45
   0  -8  -3   14.27    0.53
   0   8   3   13.86    0.55
  -1  -8  -3    3.52    0.25
   1  -8   3    2.91    0.36
   1  -8   3    3.80    0.27
   1   8   3    3.73    0.35
   1   8   3    3.71    0.32
   2  -8   3    2.83    0.46
   2  -8   3    2.65    0.26
   2   8   3    2.58    0.31
   2   8   3    2.46    0.35
   3  -8   3    3.76    0.76
   3   8   3    2.42    0.41
   3   8   3    2.43    0.31
   4  -8   3    2.59    0.86
   4   8   3    2.36    0.33
   4   8   3    2.53    0.43
   5  -8   3    2.11    0.80
   5   8   3    0.56    0.28
   5   8   3    0.37    0.19
   6  -8   3    0.48    0.64
   6   8   3    0.69    0.28
   7  -9  -3    2.65    0.57
  -7  -9   3    2.81    0.43
   7   9  -3    1.94    0.50
   6  -9  -3    4.29    0.62
  -6  -9   3    3.59    0.44
   6   9  -3    3.03    0.56
  -5  -9   3    0.04    0.13
   5  -9  -3    0.06    0.24
   5   9  -3    0.16    0.18
   4  -9  -3   -0.01    0.17
   4  -9  -3    0.20    0.13
  -4  -9   3    0.17    0.12
  -4   9   3    0.07    0.15
  -3  -9   3    1.86    0.24
   3  -9  -3    2.59    0.34
   3  -9  -3    1.91    0.28
  -3   9   3    1.98    0.25
   2  -9  -3    0.88    0.19
  -2  -9   3    1.03    0.17
   2  -9  -3    0.67    0.15
  -1  -9   3    5.66    0.31
   1  -9  -3    5.36    0.36
  -1   9   3    5.92    0.40
   0  -9   3    2.49    0.19
   0  -9   3    3.07    0.33
   0  -9  -3    2.20    0.24
   0   9   3    3.13    0.33
  -1  -9  -3   13.93    0.52
   1  -9   3   14.55    0.72
   1  -9   3   15.00    0.48
   1   9   3   14.64    0.57
   1   9   3   14.52    0.49
   2  -9   3    4.08    0.32
   2  -9   3    4.48    0.54
   2   9   3    4.54    0.39
   2   9   3    3.84    0.37
   3  -9   3    3.44    0.75
   3   9   3    3.64    0.36
   3   9   3    3.10    0.43
   4  -9   3    1.15    0.78
   4   9   3    0.39    0.18
   5  -9   3    0.90    0.78
   5   9   3    1.80    0.30
   5   9   3    2.56    0.43
   6  -9   3    0.98    0.73
   6   9   3    0.57    0.25
   7 -10  -3    0.41    0.34
  -7 -10   3   -0.15    0.20
   7  10  -3    0.42    0.30
  -6 -10   3    0.70    0.22
   6 -10  -3    0.75    0.36
   6  10  -3    0.51    0.29
  -5 -10   3    0.40    0.17
   5 -10  -3    0.23    0.25
   5  10  -3    0.27    0.18
  -4 -10   3    2.13    0.29
   4 -10  -3    2.47    0.39
   3 -10  -3    0.65    0.21
  -3 -10   3    0.49    0.15
   3 -10  -3    0.54    0.19
  -3  10   3    0.23    0.15
  -2 -10   3   18.73    0.62
   2 -10  -3   18.37    0.66
   2 -10  -3   19.04    0.63
  -2  10   3   16.80    0.59
  -1 -10   3   15.70    0.52
   1 -10  -3   14.48    0.57
   1 -10  -3   14.98    0.43
  -1  10   3   14.73    0.59
   0 -10   3    1.17    0.23
   0 -10   3    1.06    0.15
   0 -10  -3    1.01    0.18
   0  10   3    1.22    0.26
   1 -10   3    2.60    0.37
  -1 -10  -3    2.43    0.26
   1 -10   3    2.34    0.22
   1  10   3    2.60    0.20
   1  10   3    2.47    0.31
   2 -10   3    2.08    0.43
   2 -10   3    1.28    0.22
   2  10   3    2.32    0.31
   2  10   3    2.19    0.27
   3 -10   3    0.94    0.63
   3  10   3    1.24    0.30
   3  10   3    0.84    0.23
   4 -10   3    8.10    1.10
   4  10   3    9.72    0.49
   4  10   3    7.60    0.48
   5 -10   3    0.52    0.77
   5  10   3    0.52    0.25
   5  10   3    0.86    0.23
   6 -10   3    1.06    0.75
   6  10   3    1.10    0.28
  -7 -11   3    0.32    0.24
   7 -11  -3    0.30    0.36
   7  11  -3    0.52    0.31
  -6 -11   3    0.67    0.25
   6 -11  -3    0.58    0.35
   6  11  -3    0.92    0.34
  -5 -11   3    0.11    0.12
   5 -11  -3    0.27    0.26
   4 -11  -3    4.19    0.50
  -4 -11   3    4.30    0.35
   4 -11  -3    3.59    0.40
   3 -11  -3    1.34    0.27
  -3 -11   3    2.18    0.27
   3 -11  -3    1.60    0.29
  -3  11   3    1.85    0.25
  -2 -11   3    4.66    0.30
   2 -11  -3    4.19    0.30
   2 -11  -3    4.77    0.37
  -2  11   3    5.12    0.35
  -1 -11   3   34.91    0.87
   1 -11  -3   34.74    0.96
   1 -11  -3   35.25    0.80
  -1  11   3   35.95    0.94
   0 -11   3    0.66    0.12
   0 -11   3    0.58    0.19
   0 -11  -3    0.70    0.17
   0  11   3    0.59    0.23
  -1 -11  -3    3.55    0.27
   1 -11   3    2.96    0.41
   1 -11   3    2.75    0.22
   1  11   3    3.79    0.36
   2 -11   3    7.81    0.71
   2 -11   3    7.47    0.37
   2  11   3    7.76    0.47
   2  11   3    8.03    0.41
   3 -11   3    0.44    0.60
   3  11   3    0.72    0.22
   3  11   3    0.30    0.21
   4 -11   3    1.26    0.82
   4  11   3    0.91    0.24
   4  11   3    2.14    0.38
   5 -11   3   -0.21    0.74
   5  11   3    0.02    0.17
   5  11   3    0.45    0.22
   6 -11   3    0.41    0.73
   6  11   3    0.21    0.18
  -6 -12   3    0.21    0.18
   6 -12  -3    0.30    0.33
  -5 -12   3    0.36    0.18
   5 -12  -3    0.92    0.31
  -4 -12   3    0.11    0.12
   4 -12  -3    0.00    0.17
   4 -12  -3    0.37    0.25
   3 -12  -3    0.74    0.23
  -3 -12   3    1.50    0.23
   3 -12  -3    0.87    0.24
  -3  12   3    0.93    0.23
   2 -12  -3   26.87    0.86
  -2 -12   3   26.67    0.80
   2 -12  -3   27.45    0.80
  -2  12   3   27.07    0.78
   1 -12  -3   19.39    0.67
   1 -12  -3   18.20    0.48
  -1 -12   3   17.90    0.59
  -1  12   3   18.48    0.65
   0 -12   3   20.16    0.58
   0 -12  -3   19.18    0.67
   0 -12   3   19.69    0.82
   0  12   3   20.65    0.68
  -1 -12  -3    8.61    0.41
   1 -12   3    8.55    0.59
   1 -12   3    7.73    0.34
   1  12   3    7.93    0.46
   2 -12   3    8.90    0.75
   2  12   3    9.76    0.51
   2  12   3    9.90    0.45
   3 -12   3    3.99    0.76
   3  12   3    4.28    0.41
   3  12   3    3.97    0.41
   4 -12   3    1.98    0.84
   4  12   3    1.32    0.27
   4  12   3    1.87    0.36
   5 -12   3    1.79    0.87
   5  12   3    2.21    0.33
   6 -12   3    2.80    0.88
  -6 -13   3   -0.01    0.17
   6 -13  -3    0.69    0.34
  -5 -13   3    5.49    0.44
   5 -13  -3    6.73    0.71
   4 -13  -3   -0.10    0.18
  -4 -13   3    0.05    0.10
   4 -13  -3   -0.06    0.19
  -3 -13   3    0.32    0.14
   3 -13  -3    0.44    0.19
   3 -13  -3    0.41    0.21
  -3  13   3    0.38    0.21
   2 -13  -3   16.57    0.68
   2 -13  -3   16.74    0.60
  -2 -13   3   17.05    0.62
  -2  13   3   17.70    0.63
   1 -13  -3    8.30    0.45
  -1 -13   3    8.64    0.39
  -1  13   3    7.70    0.46
   0 -13   3    8.64    0.36
   0 -13   3    8.02    0.52
   0 -13  -3    7.55    0.42
   0  13   3    8.77    0.48
  -1 -13  -3    0.07    0.09
   1 -13   3    0.37    0.23
   1 -13   3    0.16    0.09
   1  13   3   -0.14    0.17
   2 -13   3    2.35    0.50
  -2 -13  -3    2.20    0.25
   2  13   3    1.95    0.30
   3 -13   3    1.47    0.63
   3  13   3    1.26    0.26
   4 -13   3    0.15    0.77
   4  13   3    0.08    0.15
   5 -13   3    0.49    0.79
   5  13   3    0.34    0.18
   6 -13   3    0.82    0.79
   6  13   3    0.34    0.22
   6 -14  -3    0.44    0.33
  -6 -14   3    0.20    0.18
   5 -14  -3    0.24    0.12
  -5 -14   3    0.26    0.16
   5 -14  -3    0.53    0.30
   4 -14  -3   12.23    0.64
   4 -14  -3   12.67    0.72
  -4 -14   3   13.40    0.64
   3 -14  -3    0.11    0.20
  -3 -14   3    0.13    0.11
   3 -14  -3    0.18    0.19
  -3  14   3   -0.21    0.20
   2 -14  -3   16.81    0.61
  -2 -14   3   16.94    0.62
   2 -14  -3   16.38    0.68
  -2  14   3   17.52    0.63
   1 -14  -3    1.75    0.26
  -1 -14   3    1.48    0.20
  -1  14   3    0.83    0.24
   0 -14   3    0.40    0.17
   0 -14   3    0.14    0.08
   0 -14  -3    0.39    0.15
   0  14   3    0.21    0.22
  -1 -14  -3    0.04    0.09
   1 -14   3    0.22    0.23
   1 -14   3    0.03    0.09
   1  14   3   -0.23    0.17
   2 -14   3    0.92    0.41
  -2 -14  -3    0.80    0.16
   2  14   3    0.67    0.23
   3 -14   3    0.29    0.58
   3  14   3   -0.09    0.16
   4 -14   3    3.07    0.88
   4  14   3    3.33    0.39
   5 -14   3    0.02    0.74
   5  14   3    0.44    0.21
   6 -14   3    0.69    0.82
   6  14   3    0.93    0.27
   6 -15  -3    1.91    0.46
  -6 -15   3    1.74    0.33
   5 -15  -3    0.70    0.32
   5 -15  -3    0.46    0.24
  -5 -15   3    0.47    0.18
   4 -15  -3    1.14    0.29
  -4 -15   3    1.36    0.25
   4 -15  -3    2.57    0.41
   3 -15  -3    0.86    0.26
   3 -15  -3    1.74    0.33
  -3 -15   3    1.19    0.23
   2 -15  -3    2.68    0.35
  -2 -15   3    3.45    0.28
  -2  15   3    2.30    0.33
   1 -15  -3   10.43    0.53
  -1 -15   3   11.54    0.46
   0 -15   3    8.19    0.35
   0 -15   3    8.79    0.56
   0 -15  -3    7.55    0.44
   0  15   3    7.37    0.45
  -1 -15  -3    1.05    0.19
   1 -15   3    0.98    0.15
   1 -15   3    1.24    0.32
   1  15   3    1.31    0.27
   2 -15   3   -0.10    0.36
  -2 -15  -3    0.06    0.07
   2  15   3   -0.06    0.18
   3 -15   3    0.67    0.62
   3  15   3   -0.12    0.16
   4 -15   3   -0.60    0.72
   4  15   3    0.00    0.15
   5 -15   3    0.89    0.84
   6 -15   3    1.04    0.83
   6  15   3    0.73    0.26
   6 -16  -3    0.71    0.34
  -6 -16   3   -0.20    0.16
   5 -16  -3    2.02    0.44
   5 -16  -3    1.72    0.35
  -5 -16   3    1.70    0.28
   4 -16  -3    1.58    0.33
   4 -16  -3    2.36    0.41
  -4 -16   3    1.33    0.25
   3 -16  -3   -0.10    0.17
   3 -16  -3    0.31    0.25
  -3 -16   3    0.08    0.12
   2 -16  -3    1.08    0.26
  -2 -16   3    1.85    0.25
  -2  16   3    2.01    0.31
  -1 -16   3    0.49    0.12
   1 -16  -3    0.21    0.17
  -1  16   3    0.03    0.07
   0 -16   3    3.63    0.24
   0 -16  -3    3.65    0.36
   0 -16   3    3.75    0.44
   0  16   3    3.42    0.37
  -1 -16  -3    0.57    0.17
   1 -16   3    0.51    0.27
   1 -16   3    0.58    0.13
   1  16   3    0.54    0.22
  -2 -16  -3    0.65    0.15
   2 -16   3    0.82    0.43
   2  16   3    0.52    0.22
   3 -16   3   -0.40    0.55
   3  16   3    0.50    0.19
   4 -16   3    1.33    0.86
   4  16   3    0.46    0.21
   5 -16   3    1.93    0.93
   5  16   3    0.92    0.24
   6 -16   3    0.25    0.86
   6  16   3    0.26    0.20
   6 -17  -3    2.16    0.49
  -6 -17   3    1.05    0.26
   5 -17  -3    1.70    0.34
  -5 -17   3    1.68    0.30
   5 -17  -3    2.80    0.50
  -4 -17   3    8.19    0.51
   4 -17  -3    7.50    0.55
   4 -17  -3    8.02    0.65
   3 -17  -3    4.27    0.48
  -3 -17   3    3.79    0.38
   2 -17  -3    0.90    0.25
  -2 -17   3    0.43    0.14
  -2  17   3    0.45    0.27
   1 -17  -3    0.01    0.16
  -1 -17   3    0.06    0.09
  -1  17   3    0.13    0.07
   0 -17  -3    4.01    0.39
   0 -17   3    3.29    0.42
   0 -17   3    3.41    0.25
   0  17   3    3.28    0.36
  -1 -17  -3    0.45    0.16
   1 -17   3    0.52    0.12
   1 -17   3    0.31    0.26
   1  17   3    0.17    0.19
   2 -17   3    4.26    0.63
  -2 -17  -3    3.62    0.29
   2  17   3    3.21    0.38
   3 -17   3    0.58    0.61
   3  17   3    0.53    0.21
   4 -17   3    0.88    0.82
   4  17   3    0.08    0.17
   5 -17   3    0.56    0.87
   5  17   3    0.48    0.21
   6 -17   3    1.42    0.93
   6 -18  -3    0.80    0.36
  -6 -18   3    0.20    0.17
   5 -18  -3    0.09    0.22
  -5 -18   3    0.11    0.13
   5 -18  -3    0.73    0.34
  -4 -18   3   11.16    0.61
   4 -18  -3   10.34    0.64
   3 -18  -3    0.64    0.25
  -3 -18   3    0.06    0.12
  -2 -18   3    2.34    0.29
   2 -18  -3    3.00    0.38
  -2  18   3    2.35    0.35
   1 -18  -3   10.83    0.57
  -1 -18   3   11.04    0.47
   0 -18   3    2.48    0.37
   0 -18  -3    1.76    0.27
   0 -18   3    2.04    0.22
   0  18   3    1.80    0.31
  -1 -18  -3    2.59    0.31
   1 -18   3    2.34    0.43
   1  18   3    2.54    0.34
  -2 -18  -3    0.14    0.11
   2 -18   3    0.74    0.43
   2  18   3    0.12    0.17
   3 -18   3    4.90    0.83
   3  18   3    3.59    0.40
   4 -18   3    3.23    0.95
   4  18   3    4.14    0.45
   5 -18   3    0.67    0.88
   5  18   3   -0.02    0.15
   6 -18   3    0.86    0.93
  -6 -19   3    0.31    0.23
   5 -19  -3    1.88    0.37
  -5 -19   3    1.29    0.26
   4 -19  -3    9.66    0.64
  -4 -19   3   11.06    0.61
  -3 -19   3    0.46    0.18
   3 -19  -3    0.34    0.24
  -2 -19   3    1.09    0.21
   2 -19  -3    0.61    0.25
  -2  19   3    1.29    0.30
  -1 -19   3    0.18    0.11
   1 -19  -3    0.57    0.22
  -1  19   3    0.50    0.23
   0 -19   3   -0.04    0.07
   0 -19  -3    0.14    0.16
   0 -19   3    0.22    0.18
   0  19   3    0.28    0.22
  -1 -19  -3    0.35    0.16
   1 -19   3    0.41    0.29
   1  19   3    0.24    0.20
   2 -19   3    3.86    0.64
  -2 -19  -3    3.62    0.30
   2  19   3    3.37    0.39
   3 -19   3    0.41    0.58
   3  19   3    0.23    0.19
   4 -19   3    0.01    0.81
   4  19   3    1.23    0.28
   5 -19   3    0.29    0.91
   5  19   3    1.18    0.29
  -5 -20   3    2.95    0.39
   5 -20  -3    2.94    0.45
  -4 -20   3    4.82    0.48
   4 -20  -3    4.70    0.53
  -3 -20   3    1.20    0.24
   3 -20  -3    1.43    0.34
   2 -20  -3    7.92    0.55
  -2 -20   3    6.70    0.41
   1 -20  -3    0.58    0.23
  -1 -20   3    0.42    0.14
  -1  20   3    0.48    0.25
   0 -20  -3    0.78    0.23
   0 -20   3    1.04    0.30
   0 -20   3    0.80    0.15
   0  20   3    0.88    0.25
  -1 -20  -3    1.07    0.24
   1 -20   3    1.36    0.40
   1  20   3    1.26    0.27
  -2 -20  -3    1.34    0.23
   2 -20   3    0.95    0.48
   2  20   3    1.08    0.26
   3 -20   3    4.06    0.79
   3  20   3    5.32    0.43
   4 -20   3    0.12    0.81
   4  20   3    0.15    0.19
   5 -20   3    1.37    0.95
  -5 -21   3    1.95    0.33
   5 -21  -3    1.86    0.39
   4 -21  -3    0.04    0.21
  -4 -21   3    0.14    0.17
   3 -21  -3    0.44    0.25
  -3 -21   3    1.04    0.23
   2 -21  -3    4.33    0.49
  -2 -21   3    4.19    0.39
   1 -21  -3    7.54    0.54
  -1 -21   3    6.75    0.39
  -1  21   3    8.24    0.49
   0 -21  -3    0.32    0.19
   0 -21   3   -0.05    0.08
   0 -21   3    0.35    0.23
   0  21   3   -0.03    0.19
  -1 -21  -3    1.42    0.26
   1 -21   3    1.12    0.39
   1  21   3    1.12    0.28
   2 -21   3    0.17    0.43
  -2 -21  -3    0.06    0.12
   2  21   3    0.11    0.19
   3 -21   3    2.57    0.71
   3  21   3    1.85    0.31
   4 -21   3    3.01    0.98
   4  21   3    3.49    0.43
   5 -21   3    0.15    0.92
   5  21   3    0.02    0.17
  -5 -22   3    0.21    0.15
   5 -22  -3    0.11    0.23
   4 -22  -3    0.19    0.24
  -4 -22   3    0.00    0.14
  -3 -22   3    3.69    0.40
   3 -22  -3    2.92    0.46
   2 -22  -3    3.41    0.46
  -2 -22   3    3.26    0.34
   1 -22  -3   28.77    1.02
  -1 -22   3   29.67    0.87
  -1  22   3   28.84    0.90
   0 -22   3    1.13    0.32
   0 -22   3    1.21    0.19
   0 -22  -3    0.90    0.26
   0  22   3    0.91    0.27
   1 -22   3    1.64    0.43
  -1 -22  -3    1.20    0.26
   1  22   3    1.45    0.31
  -2 -22  -3    1.53    0.26
   2 -22   3    1.46    0.53
   2  22   3    1.60    0.30
   3 -22   3    6.90    0.92
   3  22   3    6.80    0.49
   4 -22   3    0.42    0.84
   4  22   3    0.45    0.21
   5 -22   3    1.25    1.00
   5  22   3    0.33    0.21
   5 -23  -3    0.43    0.29
  -5 -23   3   -0.07    0.13
  -4 -23   3    0.28    0.19
   4 -23  -3    0.40    0.27
  -3 -23   3    7.33    0.49
   3 -23  -3    8.05    0.62
  -2 -23   3    1.08    0.22
   2 -23  -3    1.21    0.32
   1 -23  -3    1.96    0.36
  -1 -23   3    1.77    0.25
  -1  23   3    1.85    0.32
   0 -23   3   -0.05    0.20
   0 -23   3    0.10    0.09
   0 -23  -3    0.04    0.19
   0  23   3   -0.28    0.19
  -1 -23  -3   10.24    0.57
   1 -23   3   10.24    0.80
   1  23   3   11.81    0.58
   2 -23   3   12.29    0.93
   2  23   3   12.05    0.62
   3 -23   3    6.45    0.91
   3  23   3    6.34    0.48
   4 -23   3   -0.35    0.82
   4  23   3    0.24    0.18
   5 -23   3   -0.82    0.93
  -5 -24   3   -0.18    0.15
   5 -24  -3    0.15    0.28
  -4 -24   3    0.06    0.17
   4 -24  -3    0.17    0.26
   3 -24  -3   -0.17    0.22
  -3 -24   3    0.18    0.14
  -2 -24   3    0.07    0.11
   2 -24  -3    0.01    0.22
   1 -24  -3    0.43    0.26
  -1 -24   3    0.45    0.16
  -1 -24   3    0.61    0.27
  -1  24   3    0.50    0.23
   0 -24   3    0.08    0.23
   0 -24  -3    0.15    0.22
   0  24   3    0.28    0.22
   1 -24   3    2.12    0.49
  -1 -24  -3    1.42    0.29
   1  24   3    1.40    0.30
   2 -24   3   12.11    0.95
   2  24   3   11.75    0.61
   3 -24   3    0.04    0.58
   3  24   3    0.32    0.19
   4 -24   3   -0.13    0.83
   4  24   3    0.09    0.17
   5 -24   3    0.25    0.96
  -5 -25   3    0.82    0.28
   5 -25  -3    0.29    0.30
   4 -25  -3    0.40    0.30
  -4 -25   3    0.32    0.20
   3 -25  -3   -0.20    0.22
  -3 -25   3    0.19    0.16
  -2 -25   3    2.95    0.35
   2 -25  -3    3.00    0.46
  -1 -25   3    5.79    0.57
   1 -25  -3    6.48    0.61
  -1 -25   3    5.46    0.37
  -1  25   3    5.99    0.43
   0 -25  -3   -0.12    0.19
   0 -25   3    0.31    0.25
   0  25   3    0.26    0.20
  -1 -25  -3    6.44    0.49
   1 -25   3    4.95    0.67
   1  25   3    5.79    0.51
   2 -25   3    2.73    0.61
   2  25   3    4.15    0.44
   3 -25   3    0.41    0.61
   3  25   3    0.00    0.16
   4 -25   3    0.51    0.87
   4  25   3    0.23    0.18
   5 -25   3   -0.33    0.98
   5 -26  -3    0.52    0.32
   4 -26  -3    0.48    0.29
  -4 -26   3    0.63    0.24
   3 -26  -3    0.10    0.25
  -3 -26   3    0.30    0.18
  -2 -26   3    0.53    0.18
   2 -26  -3    0.23    0.27
  -1 -26   3    0.37    0.16
  -1 -26   3    0.51    0.26
   1 -26  -3    1.07    0.32
   0 -26   3    0.69    0.33
   0 -26  -3    0.92    0.29
   0  26   3    0.70    0.23
   1 -26   3   20.65    1.13
  -1 -26  -3   19.35    0.84
   1  26   3   21.57    0.83
   2 -26   3    9.09    0.86
   2  26   3    8.75    0.56
   3 -26   3    0.34    0.61
   3  26   3    0.16    0.17
   4 -26   3   -0.76    0.81
   4  26   3    0.98    0.25
   5 -26   3    0.59    1.06
   5 -27  -3   -0.02    0.29
  -4 -27   3    0.30    0.21
   4 -27  -3    0.42    0.30
   3 -27  -3   -0.35    0.19
  -3 -27   3    0.25    0.16
  -2 -27   3    0.89    0.22
   2 -27  -3    1.27    0.37
  -1 -27   3    0.55    0.17
  -1 -27   3    0.46    0.26
   1 -27  -3    0.39    0.27
   0 -27   3    1.04    0.36
   0 -27  -3    0.73    0.28
   0  27   3    0.98    0.24
   1 -27   3    9.50    0.80
  -1 -27  -3    8.83    0.59
   1  27   3   10.78    0.58
   2 -27   3    0.94    0.49
   2  27   3    0.94    0.25
   3 -27   3    0.63    0.64
   3  27   3    0.49    0.22
   4 -27   3   -0.82    0.85
   4  27   3    0.08    0.17
   5 -28  -3    0.33    0.33
   4 -28  -3   -0.07    0.28
  -4 -28   3    0.14    0.19
  -3 -28   3    0.20    0.17
   3 -28  -3   -0.13    0.23
   2 -28  -3    1.50    0.39
  -2 -28   3    1.05    0.24
   1 -28  -3    0.32    0.25
  -1 -28   3    0.11    0.13
  -1 -28   3    0.09    0.22
   0 -28   3    7.75    0.70
   0 -28  -3    7.79    0.58
   0  28   3    8.01    0.50
   1 -28   3    6.61    0.78
  -1 -28  -3    7.64    0.57
   1  28   3    9.41    0.54
   2 -28   3    1.08    0.55
   2  28   3    2.37    0.36
   3 -28   3   -0.05    0.62
   3  28   3    0.30    0.20
   4 -28   3   -0.98    0.84
   4  28   3    0.31    0.18
   5 -29  -3    0.16    0.33
  -4 -29   3    0.76    0.25
   4 -29  -3    0.40    0.31
   3 -29  -3   -0.17    0.25
  -3 -29   3    0.03    0.16
   2 -29  -3    0.19    0.29
  -2 -29   3   -0.12    0.13
  -1 -29   3   -0.28    0.20
   1 -29  -3    0.29    0.26
   0 -29  -3    2.57    0.43
   0 -29   3    2.48    0.52
   0  29   3    2.80    0.34
  -1 -29  -3    5.87    0.57
   1 -29   3    6.68    0.81
   1  29   3    6.41    0.48
   2 -29   3    2.66    0.66
   2  29   3    5.42    0.53
   3 -29   3    0.60    0.67
   3  29   3    0.41    0.20
   4 -29   3    1.05    1.00
  -4 -30   3    0.65    0.24
   4 -30  -3    1.12    0.37
   3 -30  -3    0.12    0.30
  -3 -30   3    0.28    0.19
  -2 -30   3    0.09    0.14
   2 -30  -3   -0.39    0.22
  -1 -30   3   -0.15    0.21
   1 -30  -3    0.09    0.24
   0 -30   3    0.01    0.29
   0 -30  -3    0.33    0.24
   0  30   3    0.34    0.14
  -1 -30  -3    0.94    0.29
   1 -30   3    0.23    0.39
   1  30   3    0.66    0.24
   2 -30   3    8.07    0.93
   2  30   3    9.16    0.59
   3 -30   3    0.56    0.71
   3  30   3    0.20    0.18
   4 -30   3    0.24    0.97
   4 -31  -3    0.65    0.33
  -3 -31   3   -0.19    0.13
   3 -31  -3    0.00    0.27
   2 -31  -3    0.10    0.25
  -2 -31   3    0.11    0.15
  -1 -31   3    0.06    0.25
   1 -31  -3    0.41    0.29
   0 -31  -3    3.11    0.46
   0 -31   3    2.18    0.51
  -1 -31  -3    0.74    0.29
   1 -31   3   -0.28    0.38
   1  31   3    0.59    0.23
   2 -31   3   -0.05    0.47
   2  31   3    0.44    0.21
   3 -31   3   -0.75    0.64
   3  31   3    0.22    0.21
   4 -31   3   -1.12    0.95
   4 -32  -3    0.01    0.28
   3 -32  -3   -0.19    0.28
  -3 -32   3   -0.26    0.14
  -2 -32   3    0.14    0.17
   2 -32  -3   -0.13    0.25
  -1 -32   3    0.25    0.30
   1 -32  -3   -0.03    0.25
   0 -32   3    0.42    0.38
   0 -32  -3    0.48    0.29
   1 -32   3    0.83    0.49
  -1 -32  -3    0.92    0.30
   1  32   3    0.57    0.22
   2 -32   3   -0.11    0.50
   2  32   3    0.35    0.20
   3 -32   3   -0.26    0.70
   3  32   3    0.24    0.19
   4 -33  -3    0.51    0.35
   3 -33  -3    0.25    0.29
  -3 -33   3   -0.21    0.14
  -2 -33   3    1.05    0.35
   2 -33  -3    1.20    0.38
  -2 -33   3    1.05    0.27
   1 -33  -3    0.19    0.28
  -1 -33   3    0.01    0.28
   0 -33  -3    1.30    0.36
   0 -33   3    0.20    0.39
   1 -33   3   -0.54    0.37
  -1 -33  -3    0.11    0.22
   1  33   3    0.25    0.18
   2 -33   3    0.78    0.59
   2  33   3    1.33    0.30
   3 -33   3   -0.19    0.73
  -3 -34   3    0.00    0.15
   3 -34  -3    0.24    0.31
  -2 -34   3    0.25    0.28
   2 -34  -3   -0.08    0.27
  -1 -34   3    0.04    0.27
   1 -34  -3    0.28    0.27
   0 -34   3   -0.22    0.36
   0 -34  -3    0.28    0.27
  -1 -34  -3    0.94    0.31
   1 -34   3    0.44    0.48
   1  34   3    0.78    0.25
   2 -34   3    0.55    0.57
   2  34   3    1.09    0.30
   3 -34   3   -1.14    0.70
   3 -35  -3   -0.37    0.24
  -3 -35   3   -0.07    0.19
  -2 -35   3    0.67    0.34
   2 -35  -3    0.34    0.31
  -1 -35   3    0.01    0.31
   1 -35  -3    0.05    0.27
   0 -35  -3    0.28    0.29
   0 -35   3   -0.28    0.35
   1 -35   3   -0.55    0.40
   2 -35   3   -0.71    0.55
   2  35   3    0.26    0.20
   2 -36  -3    0.11    0.30
  -2 -36   3   -0.19    0.28
   1 -36  -3    0.34    0.30
  -1 -36   3   -0.20    0.31
   0 -36   3   -0.21    0.39
   0 -36  -3    0.13    0.27
   1 -36   3   -0.22    0.46
   2 -36   3    0.24    0.63
   2  36   3    1.12    0.30
   2 -37  -3    0.33    0.35
   1 -37  -3    0.11    0.29
  -1 -37   3   -0.17    0.33
   0 -37  -3    0.06    0.29
   0 -37   3   -0.60    0.38
   1 -37   3    0.30    0.56
   1 -38  -3    0.67    0.37
   0 -38  -3    0.14    0.29
   1 -38   3    0.01    0.59
   0 -39  -3    0.33    0.30
   7   0  -4    0.95    0.42
   6   0  -4    2.60    0.50
   5   0  -4    4.02    0.56
  -5   0   4    3.79    0.42
   4   0  -4    6.85    0.55
  -4   0   4    8.83    0.49
  -3   0   4   -0.03    0.09
  -2   0   4    5.65    0.36
  -1   0   4    1.51    0.23
   0   0   4   17.43    0.64
   0   0   4   18.16    0.65
   1   0   4    0.43    0.23
   1   0   4    0.97    0.25
   2   0   4   16.82    0.66
   3   0   4   16.71    1.28
   3   0   4   15.56    0.65
   4   0   4    0.67    0.21
   4   0   4   -0.13    0.60
   5   0   4    0.53    0.63
   6   0   4    1.04    0.51
   7  -1  -4    0.29    0.34
   7   1  -4    0.13    0.32
   6  -1  -4    0.13    0.25
  -6  -1   4    0.08    0.18
   6   1  -4    0.05    0.24
  -5  -1   4    2.73    0.35
   5  -1  -4    3.10    0.50
  -5   1   4    2.49    0.33
   5   1  -4    2.31    0.44
  -4  -1   4    4.48    0.36
   4  -1  -4    4.62    0.53
  -4   1   4    4.41    0.41
   4   1  -4    5.18    0.48
   3  -1  -4    0.36    0.14
  -3  -1   4    0.27    0.12
  -3   1   4    0.18    0.11
  -2  -1   4    2.26    0.27
  -2   1   4    2.55    0.28
  -1  -1   4    4.89    0.32
  -1   1   4    3.80    0.31
   0  -1   4    0.18    0.16
   0  -1   4    0.12    0.09
   0   1   4    0.43    0.19
   0   1   4    0.10    0.10
   1  -1   4    8.67    0.49
   1   1   4    8.64    0.52
   1   1   4    8.84    0.51
   2  -1   4    1.95    0.30
   2  -1   4    1.67    0.43
   2   1   4    1.64    0.30
   3  -1   4    1.24    0.69
   3  -1   4    0.94    0.26
   3   1   4    1.67    0.65
   3   1   4    1.06    0.27
   4  -1   4    5.38    0.89
   4  -1   4    5.54    0.39
   4   1   4    5.31    0.39
   4   1   4    5.21    0.84
   5  -1   4    1.83    0.73
   5   1   4    1.63    0.62
   6  -1   4    3.08    0.71
   6   1   4    4.78    0.77
   7  -2  -4    0.15    0.33
   7   2  -4    0.04    0.32
   6  -2  -4    0.29    0.29
  -6  -2   4    0.01    0.18
   6   2  -4    0.21    0.29
  -5  -2   4    1.34    0.27
   5  -2  -4    1.85    0.40
  -5   2   4    2.62    0.34
   5   2  -4    2.12    0.43
  -4  -2   4    4.75    0.37
   4  -2  -4    4.17    0.50
   4  -2  -4    4.59    0.35
  -4   2   4    4.37    0.35
   4   2  -4    4.00    0.51
  -3  -2   4    0.60    0.15
   3  -2  -4    0.42    0.18
   3  -2  -4    0.21    0.09
  -3   2   4    0.37    0.15
   2  -2  -4   46.52    1.17
  -2  -2   4   45.01    1.15
  -2   2   4   46.08    1.15
  -1  -2   4    6.43    0.36
  -1   2   4    5.73    0.37
   0  -2   4    6.20    0.38
   0   2   4    6.95    0.43
   0   2   4    6.38    0.35
   1  -2   4   10.46    0.51
   1  -2   4   10.15    0.58
   1   2   4   10.06    0.56
   1   2   4   10.57    0.54
   2  -2   4    0.08    0.23
   2  -2   4    0.12    0.35
   2   2   4    0.18    0.42
   2   2   4   -0.02    0.22
   3  -2   4   32.21    1.59
   3  -2   4   27.84    0.86
   3   2   4   28.18    0.89
   3   2   4   26.62    1.40
   4  -2   4    0.05    0.65
   4   2   4    0.01    0.16
   4   2   4    0.14    0.57
   5  -2   4    0.29    0.65
   5   2   4    1.16    0.54
   6  -2   4    0.93    0.56
   6   2   4    1.25    0.50
   7  -3  -4    1.49    0.48
   7   3  -4    0.99    0.44
  -6  -3   4    0.31    0.20
   6  -3  -4    0.11    0.25
   6   3  -4    0.15    0.27
   5  -3  -4    0.81    0.31
  -5  -3   4    0.78    0.22
   5   3  -4    1.19    0.34
  -5   3   4    0.73    0.22
   4  -3  -4    4.73    0.44
  -4  -3   4    4.85    0.37
   4  -3  -4    4.39    0.35
  -4   3   4    4.65    0.36
   4   3  -4    5.21    0.61
  -3  -3   4    0.26    0.12
   3  -3  -4    0.02    0.07
   3  -3  -4    0.26    0.14
  -3   3   4    0.35    0.13
  -2  -3   4    6.68    0.38
   2  -3  -4    6.64    0.39
  -2   3   4    7.35    0.40
  -1  -3   4   49.22    1.18
  -1   3   4   50.89    1.21
   0  -3   4    3.30    0.31
   0  -3   4    3.18    0.34
   0   3   4    3.02    0.34
   0   3   4    3.02    0.26
   1  -3   4    6.00    0.48
   1  -3   4    5.91    0.40
   1   3   4    6.59    0.45
   1   3   4    6.24    0.49
   2  -3   4    0.61    0.38
   2  -3   4    0.39    0.23
   2   3   4    0.06    0.24
   2   3   4   -0.01    0.43
   3  -3   4    0.61    0.25
   3  -3   4    0.65    0.66
   3   3   4    0.29    0.21
   3   3   4    0.32    0.23
   4  -3   4    6.93    0.98
   4   3   4    6.50    0.43
   4   3   4    6.50    0.89
   5  -3   4    2.29    0.80
   5   3   4    3.49    0.64
   6  -3   4    5.54    0.91
   6   3   4    4.76    0.70
   7  -4  -4    0.30    0.37
   7   4  -4    0.21    0.33
   6  -4  -4    0.49    0.31
  -6  -4   4    0.41    0.20
   6   4  -4    0.31    0.26
   5  -4  -4    0.26    0.25
  -5  -4   4    0.56    0.19
  -5   4   4   -0.06    0.11
   5   4  -4    0.50    0.27
   4  -4  -4    0.17    0.13
  -4  -4   4    0.14    0.12
   4  -4  -4    0.17    0.17
  -4   4   4    0.02    0.11
   3  -4  -4   11.64    0.54
  -3  -4   4   13.58    0.57
   3  -4  -4   13.66    0.64
  -3   4   4   12.70    0.56
   2  -4  -4    1.90    0.27
  -2  -4   4    1.44    0.23
  -2   4   4    1.33    0.23
  -1  -4   4    1.20    0.19
   1  -4  -4    1.23    0.21
  -1   4   4    1.44    0.24
   0  -4   4    3.29    0.31
   0  -4   4    2.77    0.32
   0   4   4    2.98    0.25
   0   4   4    3.37    0.36
   1  -4   4    1.68    0.31
   1  -4   4    1.29    0.25
   1   4   4    1.51    0.27
   1   4   4    1.89    0.31
   2  -4   4    8.31    0.49
   2  -4   4    9.18    0.76
   2   4   4    8.13    0.73
   2   4   4    8.36    0.51
   3  -4   4    4.99    0.84
   3  -4   4    6.89    0.43
   3   4   4    5.36    0.66
   3   4   4    5.98    0.46
   4  -4   4    1.17    0.73
   4   4   4    0.99    0.57
   4   4   4    0.96    0.24
   5  -4   4    1.19    0.73
   5   4   4    0.77    0.45
   6  -4   4    1.90    0.71
   6   4   4    1.83    0.46
   7  -5  -4   -0.10    0.31
   7   5  -4   -0.21    0.30
   6  -5  -4    0.03    0.23
  -6  -5   4    0.01    0.14
   6   5  -4   -0.11    0.25
   5  -5  -4    0.34    0.26
  -5  -5   4    0.60    0.18
   5   5  -4    0.53    0.27
  -5   5   4    0.22    0.15
  -4  -5   4    0.22    0.12
   4  -5  -4    0.27    0.15
   4  -5  -4    0.46    0.21
  -4   5   4    0.46    0.16
   3  -5  -4    8.95    0.48
   3  -5  -4   10.06    0.55
  -3  -5   4    9.17    0.47
  -3   5   4    9.98    0.50
   2  -5  -4  120.67    2.41
  -2  -5   4  116.71    2.32
  -2   5   4  118.96    2.34
  -1  -5   4    1.57    0.21
   1  -5  -4    1.57    0.23
  -1   5   4    1.12    0.24
   0  -5   4    1.26    0.20
   0  -5   4    0.92    0.21
   0   5   4    1.09    0.16
   0   5   4    1.27    0.27
   1  -5   4    9.78    0.61
   1  -5   4   10.95    0.50
   1   5   4   10.31    0.58
   1   5   4    9.85    0.54
   2  -5   4    5.68    0.61
   2  -5   4    6.86    0.45
   2   5   4    6.83    0.67
   2   5   4    5.93    0.45
   3  -5   4   40.78    1.05
   3  -5   4   41.62    1.84
   3   5   4   42.37    1.16
   3   5   4   43.06    1.62
   4  -5   4    4.23    0.90
   4   5   4    4.35    0.42
   4   5   4    4.83    0.70
   5  -5   4    1.08    0.74
   5   5   4    1.34    0.46
   5   5   4    0.99    0.25
   6  -5   4    1.73    0.78
   6   5   4    0.93    0.35
   7  -6  -4    0.20    0.33
   7   6  -4    0.07    0.29
  -6  -6   4    0.07    0.19
   6  -6  -4    0.26    0.29
   6   6  -4    0.06    0.25
  -5  -6   4    0.65    0.22
   5  -6  -4    0.52    0.27
   5   6  -4   -0.09    0.20
  -4  -6   4    1.85    0.28
   4  -6  -4    2.07    0.30
   4  -6  -4    2.66    0.39
  -3  -6   4    0.02    0.09
   3  -6  -4    0.15    0.12
   3  -6  -4   -0.10    0.09
  -3   6   4    0.01    0.13
  -2  -6   4  188.91    3.46
   2  -6  -4  198.93    3.59
  -2   6   4  190.58    3.47
  -1  -6   4    6.05    0.35
   1  -6  -4    6.20    0.38
  -1   6   4    6.22    0.41
   0  -6   4    5.38    0.40
   0  -6   4    5.75    0.34
   0   6   4    5.64    0.41
   0   6   4    5.75    0.31
   1  -6   4    2.71    0.29
   1  -6   4    2.37    0.37
   1   6   4    2.57    0.36
   1   6   4    2.86    0.36
   2  -6   4   11.03    0.53
   2  -6   4   10.12    0.79
   2   6   4   11.29    0.58
   2   6   4   12.17    0.85
   3  -6   4    0.96    0.67
   3  -6   4    0.10    0.22
   3   6   4    0.13    0.48
   3   6   4    0.79    0.26
   4  -6   4   17.40    1.44
   4   6   4   18.70    0.75
   5  -6   4    0.33    0.73
   5   6   4    0.17    0.18
   5   6   4    0.74    0.38
   6  -6   4    1.57    0.77
   7  -7  -4    1.59    0.48
   7   7  -4    1.58    0.53
   6  -7  -4    0.41    0.28
  -6  -7   4    0.09    0.17
   6   7  -4    0.02    0.24
   5  -7  -4    1.28    0.35
  -5  -7   4    0.58    0.20
   4  -7  -4    0.60    0.18
  -4  -7   4    0.39    0.16
   4  -7  -4    1.06    0.27
  -4   7   4    0.14    0.12
   3  -7  -4    0.08    0.12
   3  -7  -4   -0.03    0.10
  -3  -7   4    0.38    0.14
  -3   7   4    0.21    0.15
   2  -7  -4   22.36    0.79
  -2  -7   4   23.39    0.76
  -2   7   4   22.86    0.78
  -1  -7   4   19.58    0.65
   1  -7  -4   19.34    0.71
  -1   7   4   19.92    0.71
   0  -7   4    3.21    0.37
   0  -7  -4    2.90    0.31
   0  -7   4    2.86    0.27
   0   7   4    2.84    0.24
   0   7   4    2.62    0.35
   1  -7   4    4.37    0.47
   1  -7   4    4.32    0.35
   1   7   4    5.13    0.45
   1   7   4    4.80    0.44
   2  -7   4    0.21    0.35
   2  -7   4    0.23    0.23
   2   7   4   -0.06    0.21
   2   7   4   -0.05    0.38
   3  -7   4    0.60    0.64
   3   7   4    1.09    0.49
   3   7   4    0.87    0.26
   4  -7   4    0.13    0.72
   4   7   4    0.39    0.22
   5  -7   4    1.65    0.81
   5   7   4    1.38    0.27
   5   7   4    2.00    0.44
   6  -7   4    2.30    0.86
  -7  -8   4    0.25    0.26
   6  -8  -4   -0.05    0.27
  -6  -8   4    0.25    0.20
   5  -8  -4    0.21    0.23
  -5  -8   4    0.10    0.12
   4  -8  -4    0.70    0.22
  -4  -8   4    0.68    0.18
  -4   8   4    0.22    0.19
   3  -8  -4    4.18    0.41
   3  -8  -4    3.90    0.35
  -3  -8   4    3.52    0.36
  -3   8   4    3.46    0.36
   2  -8  -4   24.87    0.83
   2  -8  -4   23.80    0.78
  -2  -8   4   23.11    0.76
  -2   8   4   23.11    0.78
  -1  -8   4   35.58    0.95
   1  -8  -4   35.98    1.03
  -1   8   4   36.38    1.00
   0  -8   4    0.85    0.17
   0  -8   4    1.17    0.24
   0  -8  -4    0.74    0.16
   0   8   4    0.87    0.15
   0   8   4    0.82    0.28
   1  -8   4    3.22    0.43
   1  -8   4    3.78    0.34
   1   8   4    3.39    0.39
   1   8   4    4.01    0.40
   2  -8   4    2.02    0.32
   2  -8   4    2.34    0.48
   2   8   4    2.27    0.36
   2   8   4    2.45    0.45
   3  -8   4   -0.13    0.59
   3   8   4   -0.14    0.21
   3   8   4   -0.17    0.34
   4  -8   4   -0.11    0.74
   4   8   4    0.47    0.36
   4   8   4   -0.01    0.15
   5  -8   4    0.45    0.75
   5   8   4   -0.09    0.15
   6  -8   4    1.11    0.82
  -6  -9   4    0.16    0.19
   6  -9  -4    0.30    0.29
  -5  -9   4    0.08    0.14
   5  -9  -4    0.33    0.24
  -4  -9   4    0.22    0.14
   4  -9  -4    0.55    0.20
   4  -9  -4    0.14    0.15
  -4   9   4    0.14    0.17
  -3  -9   4    0.01    0.08
   3  -9  -4   -0.09    0.11
   3  -9  -4    0.11    0.10
  -3   9   4   -0.25    0.11
   2  -9  -4    2.28    0.26
  -2  -9   4    1.98    0.25
   2  -9  -4    2.27    0.29
  -2   9   4    1.92    0.30
  -1  -9   4   23.69    0.73
   1  -9  -4   22.70    0.79
  -1   9   4   23.49    0.79
   0  -9   4    1.51    0.21
   0  -9   4    1.38    0.27
   0  -9  -4    1.91    0.25
   0   9   4    1.82    0.31
   1  -9   4    3.80    0.46
   1  -9   4    3.28    0.31
   1   9   4    3.61    0.40
   2  -9   4    0.40    0.38
   2  -9   4    0.14    0.22
   2   9   4    0.38    0.26
   3  -9   4    0.53    0.60
   3   9   4    1.53    0.31
   4  -9   4    5.17    1.00
   4   9   4    4.79    0.46
   5  -9   4    0.31    0.79
   5   9   4    0.25    0.20
   6  -9   4    1.30    0.86
   6 -10  -4    0.98    0.35
  -6 -10   4    0.40    0.22
  -5 -10   4    2.94    0.38
   5 -10  -4    2.90    0.47
  -4 -10   4    2.18    0.31
   4 -10  -4    2.16    0.35
   4 -10  -4    1.69    0.29
  -4  10   4    1.68    0.29
   3 -10  -4    3.31    0.38
   3 -10  -4    2.42    0.33
  -3 -10   4    2.18    0.29
  -2 -10   4    0.88    0.19
   2 -10  -4    1.08    0.18
   2 -10  -4    1.00    0.22
  -2  10   4    1.45    0.28
  -1 -10   4   28.29    0.83
   1 -10  -4   28.80    0.91
  -1  10   4   29.23    0.90
   0 -10   4   20.06    0.86
   0 -10  -4   20.89    0.74
   0 -10   4   20.74    0.66
   0  10   4   20.35    0.76
   1 -10   4   19.09    0.89
  -1 -10  -4   19.75    0.71
   1 -10   4   20.41    0.65
   1  10   4   19.36    0.76
   2 -10   4    1.90    0.48
   2 -10   4    1.67    0.30
   2  10   4    1.48    0.33
   3 -10   4    0.24    0.59
   3  10   4   -0.02    0.20
   4 -10   4   -0.45    0.73
   4  10   4    0.15    0.18
   5 -10   4   -0.54    0.73
   5  10   4    0.42    0.20
   6 -10   4    0.89    0.78
   6 -11  -4    0.51    0.30
  -6 -11   4    0.11    0.18
  -5 -11   4    1.45    0.27
   5 -11  -4    1.50    0.37
  -4 -11   4    2.56    0.34
   4 -11  -4    2.94    0.41
   4 -11  -4    2.80    0.37
   3 -11  -4    0.68    0.19
  -3 -11   4    0.37    0.14
   3 -11  -4    0.26    0.17
  -3  11   4    0.45    0.19
   2 -11  -4    0.08    0.14
  -2 -11   4    0.00    0.08
  -2  11   4    0.02    0.22
  -1 -11   4    0.69    0.15
   1 -11  -4    0.41    0.16
  -1  11   4    0.94    0.29
   0 -11  -4   11.31    0.53
   0 -11   4   11.99    0.66
   0 -11   4   12.01    0.48
   0  11   4   12.27    0.60
   1 -11   4   -0.08    0.14
  -1 -11  -4    0.21    0.10
   1 -11   4    0.05    0.22
   1  11   4   -0.25    0.22
   2 -11   4    2.96    0.55
   2 -11   4    2.94    0.35
   2  11   4    3.04    0.39
   3 -11   4    7.21    0.90
   3  11   4    6.98    0.50
   4 -11   4    2.72    0.90
   4  11   4    3.39    0.39
   5 -11   4    0.93    0.82
   5  11   4   -0.03    0.17
   6 -11   4    1.51    0.88
   6  11   4    0.44    0.25
  -6 -12   4    0.48    0.23
   6 -12  -4    0.41    0.32
   5 -12  -4    0.76    0.31
  -5 -12   4    0.47    0.21
   4 -12  -4    2.28    0.37
   4 -12  -4    1.92    0.33
  -4 -12   4    1.86    0.29
  -3 -12   4    2.72    0.33
   3 -12  -4    3.33    0.37
   3 -12  -4    2.18    0.33
  -3  12   4    2.76    0.35
  -2 -12   4    0.10    0.11
   2 -12  -4    0.39    0.19
  -2  12   4    0.44    0.26
  -1 -12   4    9.01    0.43
   1 -12  -4    9.00    0.49
  -1  12   4    8.55    0.54
   0 -12   4    0.17    0.15
   0 -12  -4   -0.02    0.08
   0 -12   4   -0.09    0.08
   0  12   4    0.20    0.25
   1 -12   4   15.52    0.84
  -1 -12  -4   16.26    0.65
   1 -12   4   16.27    0.57
   1  12   4   15.59    0.70
   2 -12   4   -0.47    0.33
   2  12   4   -0.20    0.19
   3 -12   4    7.42    0.92
   3  12   4    6.76    0.50
   4 -12   4    1.32    0.85
   4  12   4    2.05    0.33
   5 -12   4    0.31    0.84
   5  12   4    0.13    0.17
   6 -12   4    3.02    1.00
   6  12   4    2.61    0.40
  -6 -13   4    0.22    0.17
   6 -13  -4    0.66    0.34
  -5 -13   4    0.28    0.16
   5 -13  -4    0.40    0.26
   4 -13  -4    0.81    0.25
   4 -13  -4    0.83    0.25
  -4 -13   4    0.98    0.22
   3 -13  -4    0.69    0.23
  -3 -13   4    0.47    0.17
  -3  13   4    0.59    0.27
   2 -13  -4    4.95    0.41
  -2 -13   4    5.11    0.35
  -2  13   4    3.64    0.41
   1 -13  -4    4.89    0.38
  -1 -13   4    5.43    0.34
  -1  13   4    5.54    0.48
   0 -13   4   12.48    0.50
   0 -13  -4   12.84    0.58
   0 -13   4   12.02    0.68
   0  13   4   11.04    0.60
  -1 -13  -4   34.26    1.00
   1 -13   4   33.62    0.88
   1 -13   4   32.21    1.25
   1  13   4   34.13    1.03
   2 -13   4    2.59    0.52
   2  13   4    2.35    0.37
   3 -13   4    8.28    0.95
   3  13   4    7.13    0.49
   4 -13   4   13.44    1.40
   4  13   4   14.56    0.69
   5 -13   4   -0.25    0.81
   5  13   4    0.39    0.21
   6 -13   4    1.34    0.89
   6  13   4    0.34    0.22
  -6 -14   4    0.21    0.18
   6 -14  -4    0.68    0.33
   5 -14  -4    3.26    0.43
  -5 -14   4    2.39    0.37
   5 -14  -4    4.28    0.59
   4 -14  -4    1.68    0.32
  -4 -14   4    1.76    0.30
   3 -14  -4   -0.02    0.16
  -3 -14   4   -0.04    0.10
  -3  14   4   -0.29    0.24
  -2 -14   4    0.08    0.10
   2 -14  -4    0.07    0.15
  -2  14   4   -0.06    0.16
   1 -14  -4    0.31    0.16
  -1 -14   4    0.29    0.11
  -1  14   4    0.66    0.29
   0 -14  -4    5.16    0.38
   0 -14   4    5.19    0.48
   0 -14   4    5.69    0.33
   0  14   4    5.25    0.47
   1 -14   4   15.98    0.87
  -1 -14  -4   15.90    0.65
   1 -14   4   16.33    0.58
   1  14   4   15.42    0.70
   2 -14   4    0.11    0.41
   2  14   4    0.04    0.23
   3 -14   4   12.44    1.11
   3  14   4   11.14    0.62
   4 -14   4    1.35    0.83
   4  14   4    0.41    0.21
   5 -14   4    0.27    0.83
   5  14   4    0.39    0.19
   6 -14   4    1.20    0.89
  -6 -15   4    2.45    0.42
  -5 -15   4    3.54    0.44
   5 -15  -4    3.71    0.45
  -4 -15   4    0.11    0.12
   4 -15  -4    0.21    0.21
  -3 -15   4    3.21    0.37
   3 -15  -4    3.22    0.42
  -3  15   4    3.37    0.41
  -2 -15   4    0.05    0.10
   2 -15  -4    0.35    0.19
  -2  15   4   -0.14    0.09
  -1 -15   4    0.59    0.15
   1 -15  -4    0.11    0.13
  -1  15   4    0.29    0.27
   0 -15   4   10.90    0.47
   0 -15   4   11.67    0.69
   0 -15  -4   11.13    0.55
   0  15   4   11.01    0.60
  -1 -15  -4    7.57    0.45
   1 -15   4    8.81    0.70
   1 -15   4    8.71    0.43
   1  15   4    8.23    0.55
   2 -15   4    1.43    0.49
   2  15   4    0.92    0.30
   3 -15   4    0.46    0.57
   3  15   4    0.25    0.21
   4 -15   4    0.81    0.83
   4  15   4    0.75    0.24
   5 -15   4   -0.77    0.80
   5  15   4    0.24    0.21
  -6 -16   4    0.48    0.23
   5 -16  -4   -0.03    0.21
  -5 -16   4    0.26    0.17
  -4 -16   4    1.13    0.25
   4 -16  -4    1.60    0.31
   3 -16  -4    5.75    0.47
  -3 -16   4    5.71    0.42
   2 -16  -4    1.59    0.30
  -2 -16   4    1.55    0.25
  -2  16   4    1.00    0.26
  -1 -16   4    0.05    0.10
   1 -16  -4    0.20    0.15
  -1  16   4    0.25    0.28
   0 -16   4    0.17    0.11
   0 -16   4    0.26    0.19
   0 -16  -4    0.11    0.12
   0  16   4    0.08    0.27
   1 -16   4    9.15    0.43
  -1 -16  -4    9.11    0.50
   1 -16   4    7.95    0.71
   1  16   4    8.62    0.55
   2 -16   4    9.16    0.86
  -2 -16  -4    9.92    0.50
   2  16   4    8.97    0.56
   3 -16   4    2.97    0.72
   3  16   4    2.13    0.35
   4 -16   4    0.09    0.82
   4  16   4    1.39    0.30
   5 -16   4   -1.08    0.79
   5  16   4    0.08    0.22
   5 -17  -4    0.35    0.22
  -5 -17   4    0.43    0.18
   4 -17  -4    2.24    0.38
  -4 -17   4    1.45    0.28
   3 -17  -4    1.12    0.29
  -3 -17   4    1.24    0.25
  -2 -17   4    0.01    0.10
   2 -17  -4   -0.02    0.16
  -2  17   4   -0.24    0.25
  -1 -17   4    0.13    0.10
   1 -17  -4   -0.16    0.14
  -1  17   4    0.11    0.30
   0 -17  -4    2.26    0.32
   0 -17   4    2.13    0.26
   0 -17   4    2.60    0.42
   0  17   4    2.17    0.38
   1 -17   4    1.43    0.39
  -1 -17  -4    1.25    0.24
   1  17   4    1.36    0.32
   2 -17   4    0.32    0.42
  -2 -17  -4    0.18    0.12
   2  17   4   -0.04    0.22
   3 -17   4    0.25    0.55
   3  17   4    1.01    0.28
   4 -17   4    1.37    0.83
   4  17   4    0.20    0.19
   5 -17   4    0.43    0.89
   5  17   4    1.17    0.28
   5 -18  -4    0.30    0.23
  -5 -18   4    0.43    0.18
   4 -18  -4    0.61    0.25
  -4 -18   4    1.01    0.26
   3 -18  -4    0.39    0.22
  -3 -18   4    0.66    0.19
  -2 -18   4    1.48    0.25
   2 -18  -4    1.44    0.30
  -2  18   4    0.89    0.33
  -1 -18   4    5.19    0.36
   1 -18  -4    5.69    0.45
  -1  18   4    5.74    0.49
   0 -18  -4    2.83    0.37
   0 -18   4    1.71    0.37
   0 -18   4    2.85    0.29
   0  18   4    2.85    0.40
   1 -18   4   10.39    0.77
  -1 -18  -4    9.98    0.53
   1  18   4    8.96    0.58
   2 -18   4    1.23    0.50
  -2 -18  -4    1.01    0.21
   2  18   4    1.20    0.30
   3 -18   4    1.73    0.66
   3  18   4    1.84    0.34
   4 -18   4    0.13    0.79
   4  18   4   -0.08    0.17
   5 -18   4    0.58    0.92
   5  18   4    0.85    0.27
   5 -19  -4    0.09    0.21
  -5 -19   4    0.07    0.16
   4 -19  -4    3.06    0.42
  -4 -19   4    2.40    0.37
  -3 -19   4    0.38    0.17
   3 -19  -4    0.65    0.25
   2 -19  -4   -0.02    0.18
  -2 -19   4   -0.02    0.10
  -2  19   4    0.39    0.29
   1 -19  -4    1.12    0.28
  -1 -19   4    1.36    0.23
  -1  19   4    1.55    0.34
   0 -19   4    1.63    0.37
   0 -19  -4    1.38    0.27
   0 -19   4    1.40    0.21
   0  19   4    1.64    0.35
  -1 -19  -4   24.32    0.89
   1 -19   4   26.36    1.21
   1  19   4   24.60    0.91
   2 -19   4    9.23    0.90
  -2 -19  -4    9.67    0.52
   2  19   4    9.42    0.58
   3 -19   4    0.71    0.62
   3  19   4    0.54    0.24
   4 -19   4   -0.20    0.77
   4  19   4    0.36    0.21
   5 -19   4    0.56    0.94
   5  19   4    0.48    0.23
   5 -20  -4    0.69    0.29
  -5 -20   4    0.98    0.25
   4 -20  -4    6.21    0.60
  -4 -20   4    6.66    0.52
   3 -20  -4    2.48    0.39
  -3 -20   4    3.09    0.38
   2 -20  -4    2.55    0.39
  -2 -20   4    2.61    0.32
  -2  20   4    3.32    0.42
  -1 -20   4    2.63    0.31
   1 -20  -4    3.45    0.44
  -1  20   4    3.51    0.45
   0 -20   4    0.10    0.22
   0 -20   4    0.07    0.10
   0 -20  -4    0.04    0.15
   0  20   4   -0.18    0.24
   1 -20   4   58.37    1.92
  -1 -20  -4   54.17    1.48
   1  20   4   55.64    1.46
   2 -20   4   12.40    0.98
  -2 -20  -4   12.61    0.59
   2  20   4   11.23    0.63
   3 -20   4    2.13    0.72
   3  20   4    2.45    0.36
   4 -20   4    0.59    0.86
   4  20   4    2.74    0.40
   5 -20   4   -0.75    0.88
   5  20   4    0.26    0.20
  -5 -21   4    0.06    0.14
   5 -21  -4    0.09    0.22
  -4 -21   4    0.15    0.17
   4 -21  -4    0.58    0.25
  -3 -21   4    0.04    0.12
   3 -21  -4   -0.14    0.18
  -2 -21   4    0.19    0.13
   2 -21  -4    0.12    0.19
  -2  21   4    0.22    0.26
   1 -21  -4    0.09    0.19
  -1 -21   4    0.37    0.14
  -1  21   4    0.86    0.32
   0 -21   4   13.35    0.55
   0 -21  -4   11.65    0.64
   0 -21   4   12.31    0.81
   0  21   4   12.55    0.65
   1 -21   4   28.83    1.31
  -1 -21  -4   28.96    1.01
   1  21   4   28.40    1.00
   2 -21   4    1.21    0.50
  -2 -21  -4    1.40    0.26
   2  21   4    1.19    0.29
   3 -21   4    1.23    0.67
   3  21   4    0.79    0.26
   4 -21   4   -0.73    0.77
   4  21   4    0.00    0.17
   5 -21   4   -0.58    0.94
   5 -22  -4    0.13    0.24
  -5 -22   4    0.29    0.22
  -4 -22   4   -0.17    0.12
   4 -22  -4    0.18    0.24
  -3 -22   4    4.46    0.47
   3 -22  -4    4.74    0.55
   2 -22  -4    0.06    0.19
  -2 -22   4    0.02    0.10
   1 -22  -4    0.33    0.22
  -1 -22   4   -0.01    0.10
  -1 -22   4    0.29    0.23
  -1  22   4    0.14    0.25
   0 -22   4   21.44    0.74
   0 -22   4   22.15    1.09
   0 -22  -4   23.14    0.91
   0  22   4   23.18    0.87
  -1 -22  -4    0.65    0.22
   1 -22   4    0.35    0.37
   1  22   4    0.05    0.21
  -2 -22  -4    0.14    0.14
   2 -22   4    0.18    0.42
   2  22   4    0.30    0.22
   3 -22   4    1.64    0.68
   3  22   4    1.69    0.32
   4 -22   4    3.02    1.02
   4  22   4    2.97    0.41
   5 -22   4    0.83    1.06
   5 -23  -4   -0.32    0.20
  -5 -23   4   -0.09    0.16
   4 -23  -4    0.29    0.27
  -4 -23   4   -0.03    0.15
   3 -23  -4    0.41    0.25
  -3 -23   4    0.82    0.22
  -2 -23   4    0.36    0.15
   2 -23  -4    0.24    0.22
  -1 -23   4    0.91    0.20
  -1 -23   4    0.48    0.27
   1 -23  -4    1.15    0.30
  -1  23   4    0.37    0.16
   0 -23  -4    2.22    0.36
   0 -23   4    1.78    0.42
   0  23   4    2.39    0.37
  -1 -23  -4    0.32    0.20
   1 -23   4    0.41    0.35
   1  23   4    0.40    0.24
   2 -23   4   -0.16    0.41
   2  23   4   -0.03    0.16
   3 -23   4   -0.55    0.54
   3  23   4    0.01    0.18
   4 -23   4    3.37    1.01
   4  23   4    1.83    0.35
   5 -23   4   -0.04    1.02
   5 -24  -4    0.01    0.23
  -4 -24   4   -0.10    0.15
   4 -24  -4   -0.05    0.19
  -3 -24   4    0.32    0.17
   3 -24  -4    0.49    0.26
   2 -24  -4    0.24    0.22
  -2 -24   4   -0.09    0.11
  -1 -24   4    1.69    0.40
  -1 -24   4    1.17    0.22
   1 -24  -4    1.17    0.31
   0 -24  -4    0.20    0.19
   0 -24   4    0.06    0.24
   0  24   4    0.31    0.24
  -1 -24  -4    1.14    0.27
   1 -24   4    0.88    0.43
   1  24   4    1.11    0.29
   2 -24   4    1.17    0.51
   2  24   4    1.00    0.26
   3 -24   4   -0.15    0.57
   3  24   4    0.21    0.19
   4 -24   4   -0.97    0.78
   4  24   4    0.38    0.21
   5 -25  -4    0.47    0.31
  -4 -25   4    0.28    0.20
   4 -25  -4    0.62    0.28
   3 -25  -4    0.88    0.31
  -3 -25   4    1.51    0.30
  -2 -25   4    0.30    0.17
   2 -25  -4    0.05    0.21
  -1 -25   4    0.07    0.11
  -1 -25   4    0.46    0.27
   1 -25  -4    0.12    0.20
  -1  25   4    0.62    0.14
   0 -25   4    0.81    0.34
   0 -25  -4    1.24    0.29
   0  25   4    1.37    0.31
  -1 -25  -4    0.38    0.21
   1 -25   4    0.21    0.36
   1  25   4    0.46    0.24
   2 -25   4    0.18    0.44
   2  25   4    0.46    0.25
   3 -25   4    1.40    0.70
   3  25   4    1.85    0.34
   4 -25   4   -0.61    0.81
   4  25   4    0.51    0.21
   5 -26  -4   -0.01    0.26
   4 -26  -4    0.26    0.23
  -4 -26   4   -0.14    0.16
   3 -26  -4    0.21    0.24
  -3 -26   4    0.16    0.17
   2 -26  -4    1.20    0.34
  -2 -26   4    0.85    0.22
  -1 -26   4    0.05    0.24
   1 -26  -4    0.25    0.22
  -1 -26   4   -0.07    0.10
  -1  26   4    0.46    0.17
   0 -26  -4   -0.01    0.19
   0 -26   4    0.02    0.26
   0  26   4   -0.06    0.20
   1 -26   4    0.62    0.40
  -1 -26  -4    0.43    0.21
   1  26   4    0.57    0.25
   2 -26   4   -0.14    0.41
   2  26   4    0.42    0.22
   3 -26   4   -0.20    0.60
   3  26   4    0.32    0.22
   4 -26   4    0.06    0.88
   5 -27  -4   -0.01    0.27
  -4 -27   4   -0.10    0.15
   4 -27  -4    0.11    0.22
  -3 -27   4   -0.03    0.15
   3 -27  -4   -0.34    0.18
  -2 -27   4    3.14    0.39
   2 -27  -4    3.42    0.48
  -1 -27   4    4.98    0.38
  -1 -27   4    4.30    0.62
   1 -27  -4    4.64    0.55
   0 -27  -4   -0.10    0.18
   0 -27   4   -0.27    0.25
   0  27   4    0.66    0.25
  -1 -27  -4    1.30    0.30
   1 -27   4    1.61    0.51
   1  27   4    0.85    0.25
   2 -27   4   -0.15    0.44
   2  27   4    0.58    0.25
   3 -27   4   -0.37    0.58
   3  27   4    0.47    0.21
   4 -27   4   -1.49    0.82
   4 -28  -4    0.06    0.23
  -4 -28   4   -0.07    0.16
   3 -28  -4   -0.03    0.22
  -3 -28   4    0.25    0.18
  -2 -28   4    4.75    0.48
   2 -28  -4    4.69    0.57
   1 -28  -4    0.26    0.24
  -1 -28   4    0.13    0.27
   0 -28  -4    0.93    0.30
   0 -28   4    0.59    0.37
   0  28   4    1.24    0.29
   1 -28   4    1.16    0.47
  -1 -28  -4    0.83    0.28
   1  28   4    1.96    0.35
   2 -28   4   -0.30    0.44
   2  28   4    0.32    0.22
   3 -28   4   -1.03    0.55
   3  28   4   -0.02    0.18
   4 -28   4   -1.53    0.86
  -4 -29   4    1.17    0.32
   4 -29  -4    1.27    0.38
   3 -29  -4    0.05    0.23
  -3 -29   4    0.20    0.17
  -2 -29   4    0.28    0.18
   2 -29  -4    0.42    0.28
  -1 -29   4    0.08    0.24
   1 -29  -4    0.02    0.22
   0 -29  -4    1.01    0.30
   0 -29   4    0.22    0.35
   0  29   4    0.92    0.28
   1 -29   4    3.18    0.65
  -1 -29  -4    3.13    0.44
   1  29   4    3.54    0.45
   2 -29   4   -0.59    0.45
   2  29   4    0.37    0.21
   3 -29   4   -0.99    0.58
   3  29   4   -0.02    0.20
   4 -29   4    1.23    1.02
   4 -30  -4    0.24    0.27
   3 -30  -4    0.10    0.25
  -3 -30   4    0.03    0.17
   2 -30  -4    0.18    0.25
  -2 -30   4   -0.02    0.15
   1 -30  -4    2.53    0.44
  -1 -30   4    2.47    0.50
   0 -30  -4    2.66    0.43
   0 -30   4    1.73    0.48
   0  30   4    2.25    0.35
   1 -30   4    2.18    0.58
  -1 -30  -4    3.08    0.44
   1  30   4    3.30    0.43
   2 -30   4    0.52    0.53
   2  30   4    0.82    0.28
   3 -30   4   -0.79    0.65
   3  30   4    0.15    0.19
   4 -31  -4   -0.04    0.27
  -3 -31   4    0.18    0.19
   3 -31  -4    0.07    0.26
  -2 -31   4    0.41    0.29
   2 -31  -4   -0.12    0.22
  -2 -31   4    0.07    0.15
   1 -31  -4    1.16    0.34
  -1 -31   4    0.88    0.36
   0 -31  -4    4.32    0.54
   0 -31   4    4.38    0.69
   1 -31   4    0.41    0.43
  -1 -31  -4    0.41    0.24
   1  31   4    0.25    0.22
   2 -31   4   -0.06    0.47
   2  31   4    0.39    0.22
   3 -31   4   -0.16    0.71
   3 -32  -4   -0.11    0.27
  -3 -32   4    0.12    0.18
   2 -32  -4    0.15    0.25
  -2 -32   4    0.45    0.27
   1 -32  -4   -0.07    0.22
  -1 -32   4   -0.12    0.27
   0 -32  -4    0.30    0.25
   0 -32   4   -0.36    0.35
  -1 -32  -4    0.24    0.23
   1 -32   4   -0.20    0.40
   1  32   4    0.84    0.28
   2 -32   4   -0.63    0.48
   2  32   4    0.08    0.21
   3 -32   4   -0.51    0.69
   3 -33  -4   -0.08    0.26
  -3 -33   4    0.11    0.17
  -2 -33   4    0.19    0.29
   2 -33  -4   -0.09    0.24
  -1 -33   4    0.57    0.35
   1 -33  -4    0.27    0.27
   0 -33   4    0.32    0.41
   0 -33  -4    0.97    0.34
   1 -33   4   -0.26    0.40
  -1 -33  -4    0.42    0.25
   1  33   4    0.42    0.23
   2 -33   4   -0.34    0.54
   2  33   4   -0.06    0.17
   3 -34  -4    0.32    0.28
  -3 -34   4   -0.21    0.15
  -2 -34   4    0.71    0.36
   2 -34  -4    0.19    0.28
   1 -34  -4    0.22    0.28
  -1 -34   4    0.30    0.34
   0 -34  -4    0.99    0.32
   0 -34   4    0.34    0.43
   1 -34   4   -0.13    0.45
   1  34   4    0.25    0.22
   2 -34   4   -0.17    0.59
   2  34   4   -0.04    0.18
   2 -35  -4    1.25    0.37
  -2 -35   4    0.75    0.40
   1 -35  -4    0.14    0.28
  -1 -35   4    0.34    0.38
   0 -35   4   -0.36    0.37
   0 -35  -4    0.28    0.26
   1 -35   4   -0.34    0.45
   1  35   4    0.49    0.25
   2 -35   4    0.35    0.62
  -2 -36   4    0.81    0.42
   2 -36  -4    1.64    0.43
   1 -36  -4   -0.12    0.25
  -1 -36   4   -0.39    0.33
   0 -36   4   -0.13    0.43
   0 -36  -4    0.34    0.27
   1 -36   4   -0.31    0.48
   1 -37  -4   -0.14    0.25
  -1 -37   4   -0.52    0.33
   0 -37   4   -0.24    0.47
   0 -37  -4    0.11    0.27
  -6   0   5    0.12    0.20
   6   0  -5    0.27    0.27
   5   0  -5    0.01    0.20
  -5   0   5    0.00    0.13
  -4   0   5   -0.08    0.11
  -3   0   5    0.17    0.12
  -2   0   5   -0.07    0.11
  -1   0   5    0.08    0.16
   0   0   5   -0.05    0.19
   0   0   5    0.05    0.12
   1   0   5   -0.01    0.24
   1   0   5    0.75    0.30
   2   0   5   -0.38    0.17
   2   0   5    0.22    0.28
   3   0   5   -0.24    0.25
   3   0   5    0.09    0.67
   4   0   5    0.65    0.65
   5   0   5    0.98    0.67
   6   0   5    0.32    0.50
   6  -1  -5   -0.04    0.24
  -6  -1   5    0.01    0.20
   6   1  -5    0.04    0.25
   5  -1  -5    0.16    0.20
  -5  -1   5    0.12    0.16
  -5   1   5    0.10    0.16
  -4  -1   5    2.00    0.31
  -4   1   5    2.48    0.35
  -3  -1   5    0.44    0.16
  -3   1   5    0.28    0.15
  -2  -1   5    1.02    0.21
  -2   1   5    1.23    0.23
  -1  -1   5    0.08    0.15
  -1   1   5   -0.04    0.15
   0  -1   5    0.35    0.15
   0  -1   5    0.13    0.19
   0   1   5    0.34    0.15
   0   1   5    0.20    0.24
   1  -1   5   52.28    1.51
   1  -1   5   51.92    1.36
   1   1   5   50.93    1.46
   1   1   5   53.28    1.37
   2  -1   5    1.98    0.36
   2   1   5    2.27    0.38
   2   1   5    1.74    0.50
   3  -1   5   20.81    0.80
   3  -1   5   21.01    1.45
   3   1   5   20.17    0.80
   4  -1   5   -0.26    0.60
   4   1   5    0.27    0.61
   4   1   5    0.23    0.22
   5  -1   5    0.43    0.65
   5   1   5    1.86    0.69
   6  -1   5    0.99    0.57
   6   1   5    1.74    0.55
  -6  -2   5    0.11    0.19
   6  -2  -5    0.25    0.28
  -5  -2   5    0.31    0.19
   5  -2  -5    0.16    0.23
  -5   2   5    0.26    0.18
  -4  -2   5    0.08    0.15
  -4   2   5   -0.09    0.11
  -3  -2   5    0.22    0.13
  -3   2   5    0.32    0.16
  -2  -2   5    0.16    0.13
  -2   2   5    0.16    0.14
  -1  -2   5    0.62    0.19
  -1   2   5    0.64    0.22
   0  -2   5   15.60    0.66
   0   2   5   15.81    0.67
   0   2   5   15.41    0.63
   1  -2   5    4.27    0.44
   1   2   5    4.65    0.46
   1   2   5    3.90    0.46
   2  -2   5   11.24    0.84
   2  -2   5   10.99    0.60
   2   2   5   12.23    0.99
   2   2   5   11.91    0.63
   3  -2   5   -0.03    0.66
   3  -2   5    0.25    0.27
   3   2   5   -0.04    0.23
   3   2   5   -0.48    0.25
   4  -2   5    3.10    0.80
   4   2   5    3.95    0.43
   4   2   5    3.54    0.76
   5  -2   5    0.24    0.65
   5   2   5    0.32    0.54
   6  -2   5    1.37    0.69
   6   2   5    3.04    0.68
   6  -3  -5    0.55    0.32
  -6  -3   5    0.74    0.26
  -5  -3   5    0.76    0.22
   5  -3  -5    1.06    0.32
  -5   3   5    0.90    0.24
  -4  -3   5    0.25    0.15
  -4   3   5   -0.15    0.12
  -3  -3   5    3.04    0.35
  -3   3   5    2.60    0.34
  -2  -3   5    0.03    0.12
  -2   3   5    0.18    0.17
  -1  -3   5    2.13    0.28
  -1   3   5    2.10    0.32
   0  -3   5   15.49    0.71
   0  -3   5   16.55    0.67
   0   3   5   17.01    0.65
   0   3   5   16.81    0.72
   1  -3   5    5.95    0.55
   1  -3   5    6.16    0.48
   1   3   5    6.10    0.53
   1   3   5    5.81    0.52
   2  -3   5    0.09    0.26
   2  -3   5    0.30    0.38
   2   3   5   -0.35    0.24
   2   3   5   -0.31    0.48
   3  -3   5   19.88    0.77
   3  -3   5   19.63    1.36
   3   3   5   20.40    1.30
   3   3   5   18.59    0.79
   4  -3   5    1.17    0.76
   4   3   5    0.47    0.57
   4   3   5    1.45    0.30
   5  -3   5    0.84    0.71
   5   3   5    0.38    0.48
   6  -3   5    1.15    0.68
  -6  -4   5   -0.07    0.19
   6  -4  -5    0.02    0.25
   5  -4  -5    0.91    0.32
  -5  -4   5    0.46    0.19
  -5   4   5    0.70    0.23
   4  -4  -5    0.26    0.16
   4  -4  -5    0.54    0.25
  -4  -4   5    0.30    0.15
  -4   4   5    0.50    0.20
   3  -4  -5    0.15    0.15
  -3  -4   5   -0.04    0.10
  -3   4   5    0.28    0.17
  -2  -4   5    0.25    0.12
  -2   4   5    0.31    0.18
  -1  -4   5   -0.05    0.10
  -1   4   5    0.17    0.21
   0  -4   5   22.91    0.79
   0  -4   5   22.69    0.88
   0   4   5   22.46    0.76
   0   4   5   22.35    0.83
   1  -4   5   -0.03    0.22
   1  -4   5    0.28    0.26
   1   4   5   -0.04    0.25
   1   4   5   -0.35    0.22
   2  -4   5    0.15    0.27
   2  -4   5    0.56    0.40
   2   4   5    0.02    0.30
   2   4   5    0.31    0.52
   3  -4   5   32.39    0.99
   3  -4   5   32.39    1.68
   3   4   5   32.64    1.06
   3   4   5   34.83    1.56
   4  -4   5    1.52    0.80
   4   4   5    1.23    0.29
   5  -4   5    4.45    0.99
   6  -4   5    2.47    0.83
   6  -5  -5   -0.19    0.28
  -6  -5   5    0.12    0.21
   5  -5  -5    0.29    0.25
  -5  -5   5    0.15    0.17
  -5   5   5    0.04    0.18
   4  -5  -5    0.17    0.12
   4  -5  -5   -0.07    0.17
  -4  -5   5    0.17    0.13
  -4   5   5   -0.02    0.15
   3  -5  -5    2.34    0.32
  -3  -5   5    1.88    0.28
  -3   5   5    2.09    0.32
  -2  -5   5    9.05    0.49
   2  -5  -5    8.38    0.50
  -2   5   5    8.93    0.52
  -1  -5   5    0.06    0.12
  -1   5   5    0.33    0.23
   0  -5   5    1.01    0.24
   0  -5   5    0.89    0.22
   0   5   5    0.92    0.20
   0   5   5    1.73    0.34
   1  -5   5   14.38    0.65
   1  -5   5   15.31    0.80
   1   5   5   15.94    0.73
   1   5   5   15.63    0.73
   2  -5   5   -0.23    0.37
   2  -5   5   -0.40    0.26
   2   5   5   -0.07    0.26
   2   5   5    0.26    0.51
   3  -5   5   24.33    0.83
   3  -5   5   24.42    1.47
   3   5   5   23.36    0.89
   3   5   5   22.79    1.33
   4  -5   5    4.22    0.97
   4   5   5    5.75    0.52
   5  -5   5    1.58    0.81
   6  -5   5    2.05    0.84
   6  -6  -5   -0.08    0.26
  -6  -6   5    0.24    0.20
  -5  -6   5    0.24    0.18
   5  -6  -5    0.14    0.23
  -5   6   5    0.11    0.21
  -4  -6   5    0.56    0.20
   4  -6  -5    0.47    0.23
   4  -6  -5    0.12    0.12
  -4   6   5    0.01    0.17
   3  -6  -5    0.37    0.16
  -3  -6   5    0.81    0.20
  -3   6   5    0.41    0.21
  -2  -6   5   18.79    0.73
   2  -6  -5   18.30    0.75
  -2   6   5   18.81    0.75
  -1  -6   5    9.86    0.50
  -1   6   5    9.53    0.56
   0  -6   5    1.08    0.25
   0  -6   5    0.94    0.22
   0   6   5    0.91    0.32
   1  -6   5    0.72    0.30
   1  -6   5    0.41    0.24
   1   6   5    0.34    0.30
   2  -6   5    0.22    0.38
   2  -6   5    0.74    0.32
   2   6   5    0.13    0.29
   3  -6   5   16.88    1.34
   3   6   5   18.60    0.79
   4  -6   5   10.82    1.25
   4   6   5   10.09    0.60
   5  -6   5    4.55    1.02
   5   6   5    3.43    0.42
   6  -6   5    2.90    0.95
  -6  -7   5    0.10    0.20
   6  -7  -5    0.22    0.28
   5  -7  -5    0.24    0.24
  -5  -7   5    0.32    0.19
   4  -7  -5    4.59    0.54
   4  -7  -5    4.52    0.46
  -4  -7   5    4.84    0.47
  -4   7   5    3.89    0.43
   3  -7  -5    2.03    0.32
  -3  -7   5    1.82    0.29
  -3   7   5    2.81    0.37
   2  -7  -5    4.57    0.45
  -2  -7   5    4.43    0.36
  -2   7   5    3.65    0.41
  -1  -7   5    6.73    0.41
   1  -7  -5    5.36    0.41
  -1   7   5    5.96    0.52
   0  -7   5    3.20    0.41
   0  -7   5    3.06    0.34
   0   7   5    3.22    0.42
   1  -7   5    2.52    0.42
   1  -7   5    2.46    0.34
   1   7   5    2.65    0.42
   2  -7   5    5.85    0.49
   2  -7   5    5.41    0.66
   2   7   5    5.11    0.51
   3  -7   5    0.59    0.59
   3   7   5    0.20    0.25
   4  -7   5   10.70    1.26
   4   7   5   10.24    0.62
   5  -7   5    0.46    0.79
   5   7   5    0.26    0.21
   6  -8  -5    0.14    0.28
  -6  -8   5   -0.09    0.16
   5  -8  -5    1.20    0.34
  -5  -8   5    0.53    0.21
   4  -8  -5    0.18    0.18
   4  -8  -5    0.12    0.14
  -4  -8   5    0.10    0.12
  -4   8   5   -0.12    0.17
   3  -8  -5    0.41    0.17
  -3  -8   5    0.52    0.18
  -3   8   5    0.48    0.24
  -2  -8   5    0.10    0.13
   2  -8  -5    0.08    0.12
  -2   8   5    0.46    0.24
  -1  -8   5    4.21    0.34
   1  -8  -5    4.59    0.37
  -1   8   5    3.98    0.45
   0  -8   5    1.39    0.25
   0  -8   5    1.40    0.29
   0   8   5    0.84    0.34
   1  -8   5    1.72    0.38
   1  -8   5    1.57    0.30
   1   8   5    1.80    0.39
   2  -8   5    3.18    0.56
   2  -8   5    2.95    0.40
   2   8   5    3.01    0.43
   3  -8   5    7.79    0.92
   3   8   5    7.46    0.55
   4  -8   5    3.49    0.99
   4   8   5    4.74    0.49
   5  -8   5   -1.66    0.64
   5   8   5    0.38    0.23
   6  -9  -5    0.19    0.30
  -6  -9   5    0.02    0.20
   5  -9  -5    0.01    0.23
  -5  -9   5   -0.03    0.15
  -4  -9   5    0.12    0.14
   4  -9  -5    0.14    0.15
   4  -9  -5    0.00    0.12
  -4   9   5    0.11    0.20
  -3  -9   5    3.41    0.38
   3  -9  -5    3.46    0.42
  -3   9   5    2.98    0.39
  -2  -9   5   14.84    0.64
   2  -9  -5   15.65    0.70
  -2   9   5   14.77    0.70
  -1  -9   5    0.29    0.14
   1  -9  -5    0.26    0.14
  -1   9   5    0.44    0.26
   0  -9   5    0.36    0.19
   0  -9   5    1.12    0.22
   0   9   5    0.32    0.28
   1  -9   5    0.24    0.23
   1  -9   5   -0.11    0.23
   1   9   5   -0.03    0.30
   2  -9   5    0.47    0.32
   2  -9   5    0.59    0.41
   2   9   5    0.61    0.30
   3  -9   5    1.53    0.63
   3   9   5    1.86    0.34
   4  -9   5    0.71    0.81
   4   9   5    0.85    0.26
   5  -9   5    1.31    0.85
   5   9   5    1.06    0.28
   6 -10  -5    0.21    0.30
  -6 -10   5    0.16    0.20
   5 -10  -5    1.32    0.37
  -5 -10   5    0.45    0.20
   4 -10  -5    0.00    0.13
  -4 -10   5    0.12    0.13
  -4  10   5   -0.11    0.16
   3 -10  -5   13.49    0.67
  -3 -10   5   13.22    0.64
  -3  10   5   13.49    0.66
  -2 -10   5    9.23    0.50
   2 -10  -5    8.26    0.52
  -2  10   5    9.95    0.58
   1 -10  -5    1.86    0.29
  -1 -10   5    2.18    0.28
  -1  10   5    2.18    0.39
   0 -10   5    1.16    0.23
   0 -10  -5    0.90    0.20
   0 -10   5    1.21    0.28
   0  10   5    0.99    0.34
   1 -10   5    1.65    0.39
   1 -10   5    1.43    0.29
   1  10   5    1.25    0.33
   2 -10   5    2.47    0.53
   2 -10   5    1.83    0.36
   2  10   5    1.87    0.39
   3 -10   5    2.60    0.69
   3  10   5    3.05    0.41
   4 -10   5    2.10    0.92
   4  10   5    2.26    0.35
   5 -10   5    0.89    0.85
   5  10   5    0.04    0.19
  -6 -11   5    0.30    0.23
  -5 -11   5    0.40    0.20
   4 -11  -5    0.09    0.14
  -4 -11   5    0.07    0.13
  -4  11   5   -0.29    0.13
  -3 -11   5    4.47    0.44
   3 -11  -5    3.98    0.43
  -3  11   5    4.44    0.47
  -2 -11   5    5.43    0.39
   2 -11  -5    4.94    0.48
  -2  11   5    4.69    0.48
   1 -11  -5    4.20    0.44
  -1 -11   5    4.00    0.38
  -1  11   5    3.58    0.46
   0 -11   5    0.66    0.19
   0 -11   5    1.19    0.29
   0 -11  -5    0.91    0.21
   0  11   5    0.79    0.35
   1 -11   5   -0.05    0.27
   1 -11   5   -0.03    0.20
   1  11   5    0.08    0.29
   2 -11   5    0.64    0.44
   2  11   5    1.01    0.33
   3 -11   5    1.06    0.60
   3  11   5    0.57    0.27
   4 -11   5   -0.43    0.80
   4  11   5    0.77    0.25
   5 -11   5    1.00    0.89
   5  11   5    0.63    0.25
  -6 -12   5    0.28    0.21
  -5 -12   5    0.09    0.16
   4 -12  -5    0.22    0.16
  -4 -12   5   -0.06    0.13
   3 -12  -5    0.54    0.20
  -3 -12   5    0.28    0.15
  -3  12   5    0.43    0.27
   2 -12  -5    0.22    0.16
  -2 -12   5    0.51    0.17
  -2  12   5    0.40    0.31
   1 -12  -5    2.17    0.34
  -1 -12   5    2.11    0.28
  -1  12   5    1.58    0.38
   0 -12   5    0.67    0.25
   0 -12   5    1.13    0.22
   0 -12  -5    1.39    0.25
   0  12   5    1.24    0.33
   1 -12   5    4.37    0.40
   1 -12   5    4.07    0.55
   1  12   5    4.41    0.50
   2 -12   5    0.99    0.47
   2  12   5    1.15    0.34
   3 -12   5    0.33    0.56
   3  12   5    0.22    0.24
   4 -12   5    0.52    0.82
   4  12   5    0.02    0.21
   5 -12   5    0.05    0.88
   5  12   5    0.17    0.23
  -6 -13   5    0.25    0.21
  -5 -13   5    0.14    0.17
   4 -13  -5    0.32    0.16
  -4 -13   5    0.82    0.23
  -3 -13   5    0.75    0.21
   3 -13  -5    1.06    0.25
  -3  13   5    0.50    0.29
  -2 -13   5    3.53    0.38
   2 -13  -5    2.89    0.37
  -2  13   5    3.15    0.44
  -1 -13   5    6.47    0.41
   1 -13  -5    6.22    0.45
  -1  13   5    6.65    0.60
   0 -13   5    4.27    0.35
   0 -13  -5    5.63    0.41
   0 -13   5    5.05    0.57
   0  13   5    4.43    0.50
   1 -13   5    4.19    0.57
   1 -13   5    4.10    0.39
   1  13   5    4.19    0.50
   2 -13   5    0.52    0.42
   2  13   5    0.00    0.26
   3 -13   5    5.64    0.87
   3  13   5    5.23    0.52
   4 -13   5    1.80    0.90
   4  13   5    2.05    0.37
   5 -13   5    0.03    0.88
   5  13   5    1.48    0.33
   5 -14  -5    2.64    0.39
  -5 -14   5    2.90    0.42
   4 -14  -5    1.38    0.30
  -4 -14   5    1.51    0.29
  -3 -14   5    0.26    0.15
   3 -14  -5    0.16    0.16
  -3  14   5   -0.11    0.18
   2 -14  -5    0.50    0.20
  -2 -14   5    0.33    0.16
  -2  14   5    0.33    0.33
   1 -14  -5    0.51    0.19
  -1 -14   5    0.38    0.15
  -1  14   5    0.87    0.35
   0 -14   5    0.78    0.19
   0 -14   5    1.29    0.32
   0 -14  -5    1.39    0.27
   0  14   5    1.47    0.38
   1 -14   5    0.16    0.21
  -1 -14  -5    0.45    0.15
   1 -14   5    0.49    0.32
   1  14   5    0.38    0.33
   2 -14   5    1.21    0.48
   2  14   5    0.58    0.30
   3 -14   5    0.36    0.56
   3  14   5    0.42    0.24
   4 -14   5    0.09    0.83
   4  14   5    0.28    0.22
   5 -14   5   -0.05    0.90
   5  14   5    0.26    0.22
   5 -15  -5    2.13    0.38
  -5 -15   5    2.62    0.42
  -4 -15   5   -0.15    0.11
   4 -15  -5    0.16    0.16
  -3 -15   5   -0.05    0.11
   3 -15  -5    0.01    0.13
  -3  15   5   -0.50    0.12
   2 -15  -5    0.07    0.13
  -2 -15   5    0.03    0.11
  -2  15   5    0.14    0.31
  -1 -15   5    2.45    0.31
   1 -15  -5    2.37    0.35
  -1  15   5    2.68    0.43
   0 -15  -5   -0.09    0.10
   0 -15   5    0.12    0.20
   0 -15   5    0.25    0.15
   0  15   5    0.10    0.31
  -1 -15  -5    0.18    0.13
   1 -15   5    0.03    0.20
   1 -15   5    0.05    0.29
   1  15   5    0.40    0.30
   2 -15   5    0.81    0.46
   2  15   5    0.72    0.30
   3 -15   5    0.42    0.56
   3  15   5    0.53    0.26
   4 -15   5    0.37    0.81
   4  15   5    0.88    0.28
   5 -15   5    0.20    0.90
   5  15   5    0.56    0.24
  -5 -16   5    1.60    0.33
   5 -16  -5    1.48    0.31
  -4 -16   5    0.00    0.15
   4 -16  -5    0.07    0.16
   3 -16  -5    1.34    0.30
  -3 -16   5    1.53    0.29
  -3  16   5    0.98    0.30
  -2 -16   5    0.27    0.14
   2 -16  -5    0.12    0.15
  -2  16   5   -0.47    0.29
  -1 -16   5    2.51    0.32
   1 -16  -5    2.73    0.37
  -1  16   5    2.71    0.44
   0 -16   5    3.70    0.52
   0 -16  -5    2.92    0.39
   0 -16   5    2.98    0.34
   0  16   5    3.38    0.47
  -1 -16  -5    0.71    0.21
   1 -16   5    0.85    0.36
   1  16   5    1.11    0.34
   2 -16   5    1.88    0.55
   2  16   5    2.33    0.39
   3 -16   5    0.55    0.61
   3  16   5    1.08    0.28
   4 -16   5    0.95    0.88
   4  16   5    0.20    0.22
   5 -16   5   -1.72    0.86
   5  16   5    0.92    0.29
  -5 -17   5    4.87    0.54
   4 -17  -5    0.44    0.20
  -4 -17   5    0.47    0.21
   3 -17  -5    0.25    0.18
  -3 -17   5    0.20    0.14
  -2 -17   5    0.41    0.17
   2 -17  -5    0.15    0.15
  -2  17   5    0.43    0.34
  -1 -17   5    0.26    0.13
   1 -17  -5    0.07    0.15
  -1  17   5   -0.21    0.31
   0 -17   5    0.29    0.16
   0 -17   5   -0.23    0.17
   0 -17  -5    0.08    0.14
   0  17   5   -0.09    0.30
  -1 -17  -5    4.31    0.46
   1 -17   5    4.63    0.64
   1  17   5    4.61    0.52
   2 -17   5    4.31    0.69
   2  17   5    4.19    0.48
   3 -17   5    0.28    0.58
   3  17   5    0.92    0.29
   4 -17   5    0.01    0.80
   4  17   5   -0.09    0.20
   5 -17   5   -0.91    0.90
  -5 -18   5    0.38    0.22
   5 -18  -5    0.90    0.29
   4 -18  -5    0.97    0.27
  -4 -18   5    0.94    0.27
  -3 -18   5   -0.04    0.11
   3 -18  -5    0.06    0.16
   2 -18  -5    0.53    0.22
  -2 -18   5    0.27    0.15
  -2  18   5    0.66    0.35
   1 -18  -5    0.01    0.14
  -1 -18   5    0.05    0.11
  -1  18   5    0.49    0.34
   0 -18   5    1.32    0.35
   0 -18  -5    1.15    0.27
   0 -18   5    1.24    0.23
   0  18   5    1.01    0.35
   1 -18   5    1.14    0.42
  -1 -18  -5    1.57    0.30
   1  18   5    1.47    0.37
   2 -18   5    3.22    0.66
   2  18   5    3.46    0.45
   3 -18   5    1.43    0.63
   3  18   5    0.32    0.24
   4 -18   5   -0.95    0.72
   4  18   5    0.70    0.26
   5 -18   5    0.05    0.97
   5 -19  -5    0.35    0.21
  -5 -19   5    0.05    0.16
   4 -19  -5    0.38    0.21
  -4 -19   5    0.30    0.18
   3 -19  -5    1.16    0.29
  -3 -19   5    1.34    0.27
   2 -19  -5    0.35    0.19
  -2 -19   5    0.80    0.20
  -2  19   5    0.73    0.34
  -1 -19   5    0.05    0.12
  -1 -19   5    0.04    0.17
   1 -19  -5    0.09    0.16
  -1  19   5    0.53    0.31
   0 -19  -5    2.12    0.35
   0 -19   5    1.30    0.36
   0 -19   5    1.60    0.26
   0  19   5    1.76    0.39
  -1 -19  -5    1.06    0.25
   1 -19   5    1.25    0.43
   1  19   5    1.55    0.35
   2 -19   5    2.39    0.57
   2  19   5    1.74    0.36
   3 -19   5   -0.53    0.53
   3  19   5    0.11    0.24
   4 -19   5   -0.02    0.80
   4  19   5    0.62    0.25
   5 -19   5    1.38    1.09
  -5 -20   5    0.31    0.20
   5 -20  -5    1.19    0.33
   4 -20  -5    1.30    0.30
  -4 -20   5    2.39    0.39
   3 -20  -5    0.02    0.17
  -3 -20   5    0.08    0.13
  -2 -20   5   -0.05    0.11
   2 -20  -5   -0.16    0.14
  -2  20   5   -0.07    0.22
  -1 -20   5    0.52    0.17
  -1 -20   5    0.67    0.30
   1 -20  -5    0.62    0.24
  -1  20   5    0.63    0.33
   0 -20   5    0.02    0.24
   0 -20   5   -0.04    0.12
   0 -20  -5    0.06    0.15
   0  20   5    0.27    0.28
  -1 -20  -5    2.69    0.39
   1 -20   5    1.89    0.48
   1  20   5    2.24    0.39
   2 -20   5    7.54    0.88
   2  20   5    9.18    0.61
   3 -20   5    1.45    0.67
   3  20   5    0.90    0.29
   4 -20   5    0.10    0.80
   4  20   5    0.99    0.28
   5 -21  -5    0.11    0.21
  -4 -21   5    0.13    0.16
   4 -21  -5   -0.13    0.16
  -3 -21   5    0.13    0.14
   3 -21  -5    0.07    0.16
  -2 -21   5    1.33    0.27
   2 -21  -5    0.78    0.26
  -1 -21   5    0.10    0.22
  -1 -21   5    0.11    0.13
   1 -21  -5    0.08    0.17
  -1  21   5    0.01    0.29
   0 -21   5    2.53    0.49
   0 -21  -5    1.44    0.30
   0 -21   5    2.08    0.29
   0  21   5    1.89    0.38
  -1 -21  -5    4.93    0.51
   1 -21   5    5.70    0.73
   1  21   5    4.25    0.49
   2 -21   5    0.13    0.40
  -2 -21  -5    0.07    0.17
   2  21   5   -0.08    0.21
   3 -21   5    0.38    0.59
   3  21   5   -0.06    0.20
   4 -21   5   -0.88    0.74
   4  21   5    0.23    0.21
   5 -22  -5   -0.09    0.19
  -4 -22   5   -0.01    0.17
   4 -22  -5    0.14    0.19
  -3 -22   5    0.23    0.16
   3 -22  -5   -0.02    0.17
  -2 -22   5    4.77    0.48
   2 -22  -5    4.62    0.54
  -1 -22   5    0.98    0.22
  -1 -22   5    0.83    0.33
   1 -22  -5    1.15    0.31
  -1  22   5    1.52    0.34
   0 -22  -5    2.52    0.38
   0 -22   5    2.32    0.48
   0  22   5    2.73    0.42
  -1 -22  -5    4.22    0.48
   1 -22   5    3.86    0.64
   1  22   5    4.37    0.49
   2 -22   5    0.09    0.46
   2  22   5   -0.06    0.21
   3 -22   5    0.72    0.62
   3  22   5    1.16    0.30
   4 -22   5    0.55    0.83
   4  22   5    0.29    0.22
   5 -23  -5    0.16    0.27
  -4 -23   5    0.57    0.24
   4 -23  -5    0.72    0.28
  -3 -23   5    5.34    0.53
   3 -23  -5    5.41    0.61
   2 -23  -5    0.68    0.25
  -2 -23   5    0.69    0.21
   1 -23  -5    0.03    0.17
  -1 -23   5    0.03    0.14
  -1 -23   5   -0.03    0.20
  -1  23   5    0.54    0.29
   0 -23   5    0.85    0.36
   0 -23  -5    0.87    0.24
   0  23   5    1.29    0.33
   1 -23   5    0.33    0.39
  -1 -23  -5    0.21    0.17
   1  23   5   -0.07    0.23
   2 -23   5    1.62    0.59
   2  23   5    0.92    0.28
   3 -23   5   -0.49    0.53
   3  23   5   -0.03    0.18
   4 -23   5    0.45    0.88
   5 -24  -5    0.42    0.28
  -4 -24   5    0.14    0.20
   4 -24  -5    0.25    0.21
   3 -24  -5    0.30    0.22
  -3 -24   5    0.39    0.19
   2 -24  -5    3.35    0.48
  -2 -24   5    3.56    0.43
   1 -24  -5    0.89    0.28
  -1 -24   5    0.67    0.31
  -1 -24   5    0.55    0.18
  -1  24   5    1.24    0.34
   0 -24   5    0.39    0.30
   0 -24  -5    1.04    0.28
   0  24   5    0.63    0.28
   1 -24   5    0.22    0.39
  -1 -24  -5    0.30    0.18
   1  24   5    0.55    0.27
   2 -24   5   -0.40    0.42
   2  24   5    0.38    0.24
   3 -24   5    2.36    0.76
   3  24   5    2.41    0.38
   4 -24   5   -1.02    0.80
   5 -25  -5    0.48    0.28
  -4 -25   5    0.05    0.17
   4 -25  -5    0.45    0.24
  -3 -25   5    0.04    0.15
   3 -25  -5   -0.11    0.19
   2 -25  -5    0.28    0.24
  -2 -25   5    0.85    0.25
  -1 -25   5    3.15    0.56
  -1 -25   5    2.72    0.36
   1 -25  -5    2.96    0.45
  -1  25   5    3.70    0.46
   0 -25  -5    0.79    0.25
   0 -25   5    1.21    0.41
   0  25   5    0.96    0.30
   1 -25   5    3.60    0.69
  -1 -25  -5    3.94    0.49
   1  25   5    4.64    0.51
   2 -25   5   -0.28    0.42
   2  25   5    0.26    0.24
   3 -25   5    0.39    0.63
   3  25   5    0.22    0.20
   4 -25   5   -0.65    0.88
  -4 -26   5    0.62    0.26
   4 -26  -5    0.42    0.27
  -3 -26   5    0.06    0.15
   3 -26  -5   -0.09    0.19
   2 -26  -5    1.18    0.33
  -2 -26   5    1.21    0.28
   1 -26  -5    1.76    0.37
  -1 -26   5    1.85    0.31
  -1 -26   5    1.21    0.39
  -1  26   5    2.20    0.39
   0 -26  -5    6.53    0.63
   0 -26   5    5.05    0.72
   0  26   5    5.11    0.53
  -1 -26  -5    0.62    0.24
   1 -26   5    0.50    0.45
   1  26   5    0.83    0.29
   2 -26   5    0.81    0.53
   2  26   5    0.74    0.27
   3 -26   5   -0.51    0.58
   3  26   5    0.36    0.22
   4 -26   5   -0.73    0.86
   4 -27  -5    0.04    0.23
   3 -27  -5    0.63    0.28
  -3 -27   5    0.01    0.15
   2 -27  -5    1.44    0.36
  -2 -27   5    2.05    0.34
  -1 -27   5    0.81    0.37
   1 -27  -5    1.01    0.31
   0 -27   5    3.43    0.63
   0 -27  -5    2.64    0.42
   0  27   5    2.97    0.44
   1 -27   5    4.49    0.76
  -1 -27  -5    4.25    0.52
   1  27   5    5.22    0.55
   2 -27   5   -0.23    0.46
   2  27   5    0.25    0.22
   3 -27   5   -0.62    0.59
   3  27   5    0.34    0.21
   4 -28  -5    0.10    0.25
  -3 -28   5   -0.17    0.15
   3 -28  -5    0.08    0.22
  -2 -28   5   -0.01    0.14
   2 -28  -5    0.26    0.24
  -1 -28   5   -0.04    0.26
   1 -28  -5    0.08    0.21
   0 -28  -5    0.11    0.19
   0 -28   5    0.41    0.38
   0  28   5    0.20    0.23
   1 -28   5    1.98    0.59
  -1 -28  -5    1.93    0.38
   1  28   5    2.55    0.42
   2 -28   5   -0.03    0.47
   2  28   5    0.16    0.20
   3 -28   5    0.20    0.68
   4 -29  -5    0.14    0.26
  -3 -29   5   -0.13    0.16
   3 -29  -5    0.33    0.27
  -2 -29   5    0.53    0.22
  -2 -29   5    1.15    0.37
   2 -29  -5    0.20    0.23
  -1 -29   5   -0.35    0.23
   1 -29  -5   -0.04    0.20
   0 -29   5    0.64    0.40
   0 -29  -5    0.39    0.23
   0  29   5    0.69    0.28
  -1 -29  -5    1.89    0.37
   1 -29   5    1.70    0.57
   1  29   5    1.74    0.36
   2 -29   5   -0.39    0.45
   2  29   5    0.23    0.21
   3 -29   5    2.06    0.85
   3 -30  -5    0.46    0.27
  -3 -30   5    0.10    0.18
   2 -30  -5    0.30    0.25
  -2 -30   5    0.11    0.17
  -2 -30   5    0.55    0.31
  -1 -30   5    0.11    0.30
   1 -30  -5    0.33    0.24
   0 -30  -5    4.59    0.57
   0 -30   5    6.02    0.81
   0  30   5    6.04    0.58
  -1 -30  -5    0.18    0.22
   1 -30   5   -1.00    0.34
   1  30   5    0.01    0.20
   2 -30   5    0.40    0.56
   2  30   5    0.52    0.25
   3 -30   5    0.25    0.71
   3 -31  -5    0.06    0.23
  -3 -31   5    0.26    0.21
  -2 -31   5    0.48    0.33
   2 -31  -5   -0.01    0.23
   1 -31  -5   -0.10    0.20
  -1 -31   5    0.18    0.30
   0 -31   5    7.23    0.92
   0 -31  -5    6.87    0.70
   0  31   5    8.37    0.59
  -1 -31  -5    1.54    0.36
   1 -31   5    0.77    0.51
   1  31   5    1.37    0.33
   2 -31   5   -0.12    0.51
   2  31   5    0.40    0.25
   3 -32  -5   -0.06    0.22
  -2 -32   5    0.39    0.31
   2 -32  -5    0.31    0.26
   1 -32  -5   -0.06    0.21
  -1 -32   5    0.10    0.32
   0 -32   5   -0.15    0.37
   0 -32  -5    0.11    0.22
  -1 -32  -5    4.32    0.56
   1 -32   5    3.39    0.73
   1  32   5    4.10    0.51
   2 -32   5    0.03    0.57
  -2 -33   5    0.37    0.32
   2 -33  -5    0.09    0.25
   1 -33  -5    0.19    0.23
  -1 -33   5   -0.11    0.31
   0 -33  -5    1.09    0.34
   0 -33   5    0.71    0.49
  -1 -33  -5    0.69    0.28
   1 -33   5    0.48    0.51
   1  33   5    0.75    0.28
  -2 -34   5   -0.16    0.33
   2 -34  -5    0.04    0.25
   1 -34  -5    0.47    0.29
  -1 -34   5    0.08    0.37
   0 -34  -5    0.51    0.29
   0 -34   5    0.38    0.46
   1 -34   5    2.51    0.70
   1  34   5    2.70    0.43
  -1 -35   5    0.28    0.41
   1 -35  -5    0.29    0.28
   0 -35   5    0.36    0.50
   0 -35  -5    0.60    0.27
  -6   0   6    0.38    0.27
  -5   0   6    0.24    0.21
  -4   0   6    0.51    0.21
  -3   0   6    4.13    0.45
  -2   0   6    3.08    0.39
  -1   0   6    3.96    0.44
   0   0   6    8.83    0.55
   0   0   6    8.94    0.60
   1   0   6    0.10    0.27
   1   0   6    0.13    0.31
   2   0   6    4.73    0.52
   2   0   6    7.16    0.75
   3   0   6    1.36    0.34
   4   0   6    0.99    0.72
  -6  -1   6    0.54    0.30
  -5  -1   6    0.18    0.20
  -5   1   6   -0.04    0.19
  -4  -1   6   -0.05    0.15
  -4   1   6   -0.01    0.17
  -3  -1   6   -0.03    0.14
  -3   1   6   -0.20    0.14
  -2  -1   6    3.07    0.39
  -2   1   6    2.74    0.38
  -1  -1   6    0.06    0.21
  -1   1   6   -0.01    0.23
   0  -1   6    1.21    0.32
   0  -1   6    1.08    0.27
   0   1   6    1.60    0.29
   0   1   6    1.41    0.35
   1  -1   6    3.28    0.49
   1  -1   6    3.18    0.45
   1   1   6    3.24    0.46
   1   1   6    3.05    0.47
   2  -1   6    3.37    0.47
   2   1   6    4.29    0.64
   2   1   6    3.65    0.47
   3  -1   6    1.30    0.73
   3  -1   6    1.56    0.36
   3   1   6    0.27    0.60
   3   1   6    1.24    0.34
   4  -1   6    0.87    0.74
   5  -1   6    2.13    0.81
  -6  -2   6    0.16    0.23
  -5  -2   6    0.48    0.23
  -5   2   6    0.32    0.25
  -4  -2   6    0.23    0.17
  -4   2   6    0.07    0.17
  -3  -2   6    0.15    0.16
  -3   2   6    0.05    0.16
  -2  -2   6    0.86    0.24
  -2   2   6    0.97    0.26
  -1  -2   6    0.09    0.19
  -1   2   6    0.28    0.24
   0  -2   6    0.06    0.15
   0  -2   6    0.22    0.25
   0   2   6    0.06    0.28
   0   2   6    0.20    0.19
   1  -2   6    8.13    0.60
   1   2   6    9.09    0.67
   1   2   6    8.43    0.63
   2  -2   6   -0.72    0.27
   2  -2   6    0.06    0.29
   2   2   6   -0.49    0.28
   3  -2   6    1.28    0.34
   3  -2   6    0.75    0.67
   3   2   6    1.38    0.33
   4  -2   6   -0.16    0.71
   4   2   6    0.68    0.26
   5  -2   6    1.06    0.74
  -6  -3   6    0.11    0.23
  -5  -3   6    1.41    0.32
  -5   3   6    0.62    0.27
  -4  -3   6    0.30    0.18
  -4   3   6    0.11    0.19
  -3  -3   6    0.26    0.18
  -3   3   6    0.19    0.20
  -2  -3   6    0.54    0.20
  -2   3   6    0.83    0.25
  -1  -3   6    0.73    0.24
  -1   3   6    0.59    0.28
   0  -3   6    0.10    0.23
   0  -3   6   -0.04    0.09
   0   3   6   -0.54    0.26
   1  -3   6    0.46    0.32
   1  -3   6   -0.09    0.20
   1   3   6    0.59    0.37
   2  -3   6    8.65    0.81
   2  -3   6    7.72    0.57
   2   3   6    8.32    0.59
   3  -3   6    3.43    0.43
   3  -3   6    4.14    0.82
   3   3   6    2.90    0.42
   4  -3   6    0.04    0.76
   4   3   6    0.32    0.25
   5  -3   6    1.49    0.79
  -6  -4   6    0.04    0.20
  -5  -4   6    0.34    0.22
  -5   4   6    0.49    0.24
  -4  -4   6    0.35    0.17
  -4   4   6    0.27    0.21
  -3  -4   6    0.04    0.14
  -3   4   6    0.16    0.20
  -2  -4   6    0.06    0.14
  -2   4   6    0.24    0.23
  -1  -4   6    0.32    0.21
  -1   4   6   -0.01    0.26
   0  -4   6    2.29    0.37
   0  -4   6    2.09    0.36
   0   4   6    2.26    0.43
   1  -4   6    0.97    0.36
   1  -4   6    1.21    0.37
   1   4   6    0.39    0.33
   2  -4   6    2.45    0.42
   2  -4   6    2.22    0.54
   2   4   6    2.12    0.40
   3  -4   6    1.72    0.37
   3  -4   6    1.94    0.71
   3   4   6    2.28    0.41
   4  -4   6   -0.34    0.77
   4   4   6   -0.04    0.22
   5  -4   6    1.97    0.87
  -6  -5   6   -0.04    0.22
  -5  -5   6    1.23    0.29
  -5   5   6    0.86    0.31
  -4  -5   6    0.24    0.16
  -4   5   6    0.05    0.20
  -3  -5   6   12.29    0.65
  -3   5   6   12.50    0.68
  -2  -5   6    3.99    0.43
  -2   5   6    3.99    0.45
  -1  -5   6    0.24    0.19
  -1   5   6    0.26    0.27
   0  -5   6    0.95    0.29
   0  -5   6    1.34    0.30
   0   5   6    1.19    0.36
   1  -5   6    0.85    0.31
   1  -5   6    0.87    0.34
   1   5   6    1.16    0.38
   2  -5   6    0.41    0.41
   2  -5   6    0.56    0.31
   2   5   6    0.59    0.33
   3  -5   6   -0.14    0.57
   3   5   6    0.05    0.25
   4  -5   6    3.03    0.95
   4   5   6    4.03    0.47
   5  -5   6    2.42    0.91
  -6  -6   6   -0.09    0.20
  -5  -6   6    0.33    0.21
  -5   6   6   -0.22    0.21
  -4  -6   6    0.41    0.18
  -4   6   6    0.49    0.28
  -3  -6   6    2.92    0.39
  -3   6   6    2.81    0.41
  -2  -6   6    4.33    0.45
  -2   6   6    4.42    0.49
  -1  -6   6    0.97    0.24
  -1   6   6    1.30    0.34
   0  -6   6    0.93    0.29
   0  -6   6    0.73    0.26
   0   6   6    0.71    0.36
   1  -6   6    0.26    0.27
   1  -6   6    0.69    0.33
   1   6   6    0.04    0.32
   2  -6   6    6.26    0.74
   2  -6   6    5.88    0.55
   2   6   6    5.84    0.56
   3  -6   6   -0.33    0.53
   3   6   6    0.54    0.27
   4  -6   6   -0.98    0.77
   4   6   6    0.81    0.29
   5  -6   6    1.52    0.87
  -6  -7   6    0.18    0.23
  -5  -7   6    0.39    0.22
  -4  -7   6    0.96    0.25
   4  -7  -6    0.95    0.25
  -4   7   6    0.78    0.30
  -3  -7   6    4.50    0.48
   3  -7  -6    4.70    0.49
  -3   7   6    4.34    0.50
  -2  -7   6    4.25    0.45
  -2   7   6    4.50    0.51
  -1  -7   6    0.37    0.18
  -1   7   6    0.33    0.31
   0  -7   6   -0.08    0.17
   0  -7   6    0.08    0.20
   0   7   6    0.53    0.34
   1  -7   6    0.15    0.29
   1  -7   6    0.25    0.27
   1   7   6    0.05    0.32
   2  -7   6    9.17    0.84
   2  -7   6    8.90    0.62
   2   7   6    9.87    0.65
   3  -7   6    6.30    0.90
   3   7   6    7.95    0.57
   4  -7   6   -0.13    0.83
   4   7   6    0.23    0.25
   5  -7   6    1.46    0.90
  -6  -8   6    0.53    0.27
  -5  -8   6    0.20    0.19
  -4  -8   6    0.39    0.19
   4  -8  -6    0.69    0.21
  -4   8   6    0.14    0.23
  -3  -8   6   10.35    0.60
   3  -8  -6   12.25    0.67
  -3   8   6   11.78    0.68
   2  -8  -6    0.52    0.20
  -2  -8   6    0.81    0.22
  -2   8   6    0.78    0.32
  -1  -8   6    0.20    0.17
  -1   8   6   -0.03    0.30
   0  -8   6   -0.12    0.18
   0  -8   6    0.01    0.19
   0   8   6    0.27    0.35
   1  -8   6    0.43    0.32
   1  -8   6   -0.33    0.24
   1   8   6    0.38    0.35
   2  -8   6    0.30    0.31
   2  -8   6    0.36    0.40
   2   8   6    0.71    0.33
   3  -8   6   12.50    1.18
   3   8   6   12.78    0.72
   4  -8   6    1.21    0.86
   4   8   6    0.29    0.24
   5  -8   6    0.38    0.86
   5   8   6    0.97    0.29
  -5  -9   6    1.80    0.36
   4  -9  -6    0.47    0.20
  -4  -9   6    0.29    0.19
  -4   9   6    0.46    0.29
   3  -9  -6   14.47    0.75
  -3  -9   6   17.10    0.78
  -3   9   6   16.09    0.80
   2  -9  -6    0.26    0.15
  -2  -9   6    0.34    0.19
  -2   9   6    0.53    0.31
  -1  -9   6    0.87    0.23
  -1   9   6    0.38    0.33
   0  -9   6    0.11    0.21
   0  -9   6    0.27    0.21
   0   9   6   -0.12    0.33
   1  -9   6   -0.15    0.28
   1  -9   6    0.27    0.26
   1   9   6    0.15    0.33
   2  -9   6    2.62    0.42
   2  -9   6    2.83    0.56
   2   9   6    2.88    0.45
   3  -9   6    1.25    0.62
   3   9   6    1.27    0.36
   4  -9   6    0.02    0.84
   4   9   6    0.80    0.28
   5  -9   6    0.08    0.85
   5   9   6    0.53    0.24
  -5 -10   6    0.50    0.25
  -4 -10   6    1.15    0.27
   4 -10  -6    1.17    0.26
  -4  10   6    0.84    0.32
  -3 -10   6   12.31    0.66
   3 -10  -6   11.54    0.66
  -3  10   6   11.67    0.69
   2 -10  -6    7.49    0.52
  -2 -10   6    8.47    0.53
  -2  10   6    8.25    0.61
  -1 -10   6    3.61    0.40
   1 -10  -6    2.53    0.37
  -1  10   6    2.94    0.49
   0 -10   6    0.11    0.21
   0 -10   6    0.57    0.23
   0  10   6    0.25    0.36
   1 -10   6   -0.22    0.23
   1 -10   6    0.06    0.28
   1  10   6   -0.29    0.31
   2 -10   6   -0.07    0.37
   2  10   6   -0.03    0.27
   3 -10   6    7.89    0.96
   3  10   6    8.03    0.60
   4 -10   6   -0.16    0.81
   4  10   6   -0.01    0.21
   5 -10   6    1.39    0.96
   5  10   6    1.00    0.29
  -5 -11   6    0.44    0.25
  -4 -11   6    0.03    0.15
   4 -11  -6    0.08    0.15
  -4  11   6    0.01    0.27
   3 -11  -6    1.40    0.29
  -3 -11   6    1.46    0.29
  -3  11   6    0.82    0.34
  -2 -11   6    5.68    0.44
   2 -11  -6    6.21    0.48
  -2  11   6    5.93    0.60
  -1 -11   6    1.73    0.29
   1 -11  -6    2.27    0.36
  -1  11   6    2.24    0.45
   0 -11   6    0.25    0.21
   0 -11   6    0.22    0.21
   0  11   6    0.48    0.35
   1 -11   6    0.16    0.25
   1 -11   6    0.07    0.28
   1  11   6    0.44    0.31
   2 -11   6   10.92    0.92
   2  11   6    8.88    0.62
   3 -11   6    0.90    0.59
   3  11   6    0.86    0.31
   4 -11   6   -0.62    0.80
   4  11   6    0.50    0.26
   5 -11   6   -1.21    0.85
   5  11   6    0.55    0.23
  -5 -12   6    0.01    0.17
  -4 -12   6    0.09    0.16
   4 -12  -6    0.21    0.16
  -4  12   6    0.17    0.29
  -3 -12   6    0.47    0.18
   3 -12  -6    0.38    0.20
  -3  12   6    0.69    0.33
  -2 -12   6    5.86    0.45
   2 -12  -6    5.37    0.44
  -2  12   6    5.57    0.58
  -1 -12   6    2.60    0.35
   1 -12  -6    2.04    0.34
  -1  12   6    2.49    0.46
   0 -12   6    9.41    0.70
   0 -12   6    8.99    0.55
   0  12   6    8.84    0.67
   1 -12   6    0.25    0.26
   1 -12   6    0.52    0.32
   1  12   6    0.21    0.31
   2 -12   6    6.48    0.79
   2  12   6    6.57    0.61
   3 -12   6   -0.23    0.52
   3  12   6    0.41    0.27
   4 -12   6   -0.71    0.79
   4  12   6    0.19    0.23
   5 -12   6   -1.58    0.89
   5  12   6    0.41    0.23
  -5 -13   6    0.53    0.23
  -4 -13   6    1.92    0.36
   4 -13  -6    2.07    0.36
  -3 -13   6    1.16    0.27
   3 -13  -6    0.74    0.24
  -3  13   6    1.04    0.35
  -2 -13   6    7.45    0.51
   2 -13  -6    7.49    0.53
  -2  13   6    6.89    0.62
   1 -13  -6    0.08    0.13
  -1 -13   6    0.07    0.14
  -1  13   6   -0.30    0.34
   0 -13   6    0.59    0.21
   0 -13   6    0.52    0.28
   0  13   6    0.54    0.35
   1 -13   6    8.59    0.56
   1 -13   6    9.66    0.81
   1  13   6    9.13    0.65
   2 -13   6    0.11    0.38
   2  13   6    0.35    0.30
   3 -13   6    0.86    0.61
   3  13   6    1.43    0.36
   4 -13   6    0.08    0.84
   4  13   6    0.23    0.26
   5 -13   6    0.89    1.04
   5 -14  -6    0.09    0.19
  -5 -14   6    0.12    0.18
  -4 -14   6    0.77    0.25
   4 -14  -6    0.95    0.25
  -3 -14   6    0.20    0.16
   3 -14  -6    0.33    0.18
  -3  14   6   -0.09    0.28
   2 -14  -6    0.78    0.23
  -2 -14   6    0.60    0.20
  -2  14   6    0.47    0.35
  -1 -14   6    0.09    0.18
  -1 -14   6    0.03    0.15
   1 -14  -6   -0.03    0.11
  -1  14   6   -0.37    0.31
   0 -14  -6   -0.01    0.12
   0 -14   6    0.09    0.17
   0 -14   6   -0.09    0.20
   0  14   6   -0.26    0.32
   1 -14   6    0.51    0.35
   1 -14   6    0.65    0.27
   1  14   6    0.63    0.33
   2 -14   6    0.62    0.44
   2  14   6    0.34    0.30
   3 -14   6   -0.08    0.55
   3  14   6   -0.12    0.23
   4 -14   6    0.52    0.85
   4  14   6    0.53    0.26
   5 -15  -6    0.65    0.24
  -5 -15   6    0.33    0.22
  -4 -15   6    0.18    0.18
   4 -15  -6    0.15    0.17
  -3 -15   6    1.13    0.27
   3 -15  -6    0.68    0.22
  -3  15   6    0.70    0.40
   2 -15  -6    0.69    0.23
  -2 -15   6    1.33    0.26
  -2  15   6    0.86    0.37
  -1 -15   6    5.87    0.44
   1 -15  -6    7.08    0.52
  -1 -15   6    6.40    0.60
  -1  15   6    7.39    0.65
   0 -15   6   -0.11    0.16
   0 -15   6    0.29    0.24
   0 -15  -6   -0.01    0.14
   0  15   6    0.19    0.31
   1 -15   6    0.84    0.39
   1  15   6    1.15    0.37
   2 -15   6    0.34    0.44
   2  15   6    0.69    0.30
   3 -15   6    2.46    0.74
   3  15   6    1.95    0.39
   4 -15   6    0.74    0.86
   4  15   6    0.87    0.29
   5 -16  -6    1.05    0.29
  -5 -16   6    1.02    0.29
   4 -16  -6    0.17    0.15
  -4 -16   6   -0.03    0.16
   3 -16  -6    0.17    0.16
  -3 -16   6    0.11    0.17
  -3  16   6   -0.13    0.33
  -2 -16   6    1.78    0.31
   2 -16  -6    1.57    0.32
  -2  16   6    1.64    0.42
   1 -16  -6   -0.04    0.14
  -1 -16   6    0.09    0.14
  -1 -16   6   -0.04    0.16
  -1  16   6    0.06    0.31
   0 -16   6   52.28    1.40
   0 -16  -6   50.18    1.53
   0 -16   6   50.78    1.80
   0  16   6   49.33    1.48
   1 -16   6    4.55    0.67
   1  16   6    4.41    0.53
   2 -16   6    1.63    0.55
   2  16   6    1.48    0.34
   3 -16   6    1.25    0.67
   3  16   6    1.70    0.36
   4 -16   6   -0.87    0.78
   4  16   6    0.36    0.24
   5 -17  -6    0.27    0.21
   4 -17  -6    0.25    0.18
  -4 -17   6    0.43    0.23
   3 -17  -6    0.23    0.16
  -3 -17   6    0.06    0.15
  -3  17   6   -0.78    0.27
  -2 -17   6    0.12    0.14
   2 -17  -6    0.17    0.15
  -2  17   6    0.05    0.35
   1 -17  -6    0.01    0.14
  -1 -17   6    0.08    0.16
  -1 -17   6    0.42    0.24
  -1  17   6    0.38    0.33
   0 -17   6    9.33    0.75
   0 -17   6    9.15    0.55
   0 -17  -6   10.32    0.64
   0  17   6    9.16    0.66
   1 -17   6    5.93    0.76
   1  17   6    5.69    0.57
   2 -17   6    3.43    0.68
   2  17   6    2.91    0.44
   3 -17   6   -0.22    0.54
   3  17   6    0.37    0.26
   4 -17   6   -0.56    0.80
   4  17   6    0.68    0.27
   5 -18  -6    0.67    0.26
  -4 -18   6   -0.12    0.13
   4 -18  -6    0.08    0.15
   3 -18  -6    0.48    0.21
  -3 -18   6    0.60    0.24
   2 -18  -6   -0.09    0.13
  -2 -18   6    0.07    0.14
  -2  18   6   -0.36    0.33
  -1 -18   6    2.40    0.34
  -1 -18   6    2.49    0.48
   1 -18  -6    1.66    0.34
  -1  18   6    2.59    0.47
   0 -18  -6   19.34    0.89
   0 -18   6   21.04    1.11
   0 -18   6   20.52    0.82
   0  18   6   20.83    0.93
   1 -18   6    5.30    0.72
   1  18   6    4.56    0.54
   2 -18   6    1.14    0.53
   2  18   6    1.21    0.33
   3 -18   6    0.24    0.58
   3  18   6    0.07    0.22
   4 -18   6   -0.35    0.81
   4  18   6    0.35    0.25
   5 -19  -6    0.32    0.22
  -4 -19   6    0.53    0.24
   4 -19  -6    0.59    0.24
   3 -19  -6    0.17    0.16
  -3 -19   6    0.06    0.15
  -2 -19   6   -0.01    0.13
   2 -19  -6    0.19    0.16
  -2  19   6    0.19    0.36
  -1 -19   6    7.63    0.52
  -1 -19   6    7.57    0.69
   1 -19  -6    7.82    0.57
  -1  19   6    8.28    0.63
   0 -19   6    1.03    0.25
   0 -19  -6    0.81    0.24
   0 -19   6    1.62    0.41
   0  19   6    1.19    0.39
   1 -19   6    1.74    0.51
  -1 -19  -6    1.86    0.35
   1  19   6    2.48    0.43
   2 -19   6    1.13    0.53
   2  19   6    2.03    0.39
   3 -19   6    1.00    0.63
   3  19   6    1.31    0.33
   4 -19   6   -1.12    0.77
   5 -20  -6    0.28    0.23
  -4 -20   6    0.55    0.23
   4 -20  -6    0.43    0.23
   3 -20  -6    0.13    0.17
  -3 -20   6   -0.06    0.14
   2 -20  -6    0.22    0.17
  -2 -20   6    0.41    0.19
  -2  20   6    0.33    0.32
  -1 -20   6    3.04    0.54
  -1 -20   6    2.80    0.38
   1 -20  -6    2.51    0.40
  -1  20   6    2.87    0.47
   0 -20   6   -0.11    0.21
   0 -20  -6    0.26    0.17
   0  20   6    0.21    0.30
  -1 -20  -6    0.22    0.19
   1 -20   6    0.44    0.36
   1  20   6    0.41    0.27
   2 -20   6    0.25    0.46
   2  20   6    0.34    0.28
   3 -20   6   -0.28    0.55
   3  20   6    0.56    0.27
   4 -20   6   -0.04    0.87
   5 -21  -6    0.27    0.21
  -4 -21   6    0.37    0.21
   4 -21  -6    0.41    0.22
   3 -21  -6    0.13    0.16
  -3 -21   6   -0.11    0.14
  -2 -21   6    0.43    0.20
   2 -21  -6    0.39    0.21
  -2  21   6   -0.15    0.30
   1 -21  -6   -0.03    0.14
  -1 -21   6    0.26    0.24
  -1 -21   6    0.25    0.16
  -1  21   6    0.25    0.31
   0 -21   6    2.26    0.49
   0 -21  -6    2.66    0.42
   0  21   6    3.14    0.47
  -1 -21  -6    0.57    0.22
   1 -21   6    1.00    0.45
   1  21   6    1.00    0.35
   2 -21   6   -0.24    0.41
   2  21   6   -0.05    0.22
   3 -21   6    0.25    0.57
   3  21   6    0.27    0.23
   4 -21   6   -0.29    0.81
  -4 -22   6    0.52    0.26
   4 -22  -6    0.31    0.20
  -3 -22   6    0.16    0.17
   3 -22  -6    0.11    0.16
  -2 -22   6   -0.03    0.15
   2 -22  -6    0.27    0.18
  -2  22   6    0.14    0.31
  -1 -22   6    0.99    0.34
  -1 -22   6    2.48    0.36
   1 -22  -6    2.15    0.39
  -1  22   6    2.18    0.43
   0 -22  -6    0.03    0.15
   0 -22   6    0.11    0.27
   0  22   6   -0.22    0.26
   1 -22   6   -0.22    0.33
  -1 -22  -6    0.07    0.16
   1  22   6    0.35    0.28
   2 -22   6    1.98    0.62
   2  22   6    1.13    0.34
   3 -22   6   -0.68    0.54
   3  22   6    0.01    0.21
   4 -22   6    0.00    0.88
   4 -23  -6    0.03    0.20
  -4 -23   6    0.10    0.21
  -3 -23   6    0.45    0.22
   3 -23  -6    0.79    0.27
  -2 -23   6    1.34    0.29
   2 -23  -6    0.89    0.27
  -1 -23   6   -0.07    0.19
   1 -23  -6   -0.07    0.16
  -1 -23   6   -0.05    0.13
  -1  23   6    0.65    0.33
   0 -23   6   -0.12    0.24
   0 -23  -6    0.26    0.21
   0  23   6    0.40    0.33
  -1 -23  -6    0.10    0.19
   1 -23   6    0.25    0.40
   1  23   6    0.14    0.25
   2 -23   6    0.17    0.47
   2  23   6   -0.04    0.23
   3 -23   6   -0.70    0.53
   3  23   6    0.12    0.19
   4 -24  -6    0.16    0.20
   3 -24  -6    0.39    0.21
  -3 -24   6    1.13    0.30
   2 -24  -6    0.11    0.17
  -2 -24   6   -0.03    0.15
   1 -24  -6    0.14    0.18
  -1 -24   6    0.08    0.15
  -1 -24   6    0.40    0.31
  -1  24   6    0.21    0.29
   0 -24  -6    0.10    0.16
   0 -24   6   -0.25    0.28
   0  24   6    0.52    0.31
   1 -24   6   -0.22    0.36
  -1 -24  -6    0.13    0.19
   1  24   6    0.21    0.28
   2 -24   6   -0.51    0.42
   2  24   6    0.25    0.24
   3 -24   6   -0.06    0.59
   4 -25  -6    0.32    0.21
  -3 -25   6    0.70    0.26
   3 -25  -6    1.19    0.32
  -2 -25   6    0.31    0.21
   2 -25  -6    0.69    0.27
   1 -25  -6    0.10    0.18
  -1 -25   6   -0.14    0.27
  -1  25   6    0.41    0.31
   0 -25   6   -0.08    0.30
   0 -25  -6    0.06    0.15
   0  25   6    0.13    0.28
   1 -25   6    0.46    0.43
  -1 -25  -6    0.37    0.21
   1  25   6    0.27    0.27
   2 -25   6    0.18    0.51
   2  25   6    0.18    0.23
   3 -25   6    1.12    0.71
   4 -26  -6    0.26    0.22
  -3 -26   6   -0.10    0.15
   3 -26  -6    0.54    0.24
   2 -26  -6    0.22    0.20
  -2 -26   6    0.49    0.31
  -2 -26   6    0.30    0.21
  -1 -26   6    0.40    0.33
   1 -26  -6    0.39    0.24
  -1  26   6    0.98    0.37
   0 -26   6    1.29    0.50
   0 -26  -6    1.01    0.29
   0  26   6    1.50    0.36
   1 -26   6    0.17    0.40
  -1 -26  -6    0.14    0.17
   1  26   6    0.25    0.26
   2 -26   6   -0.04    0.51
   2  26   6    0.20    0.25
   3 -26   6   -0.33    0.63
   3 -27  -6    0.31    0.23
  -3 -27   6    0.30    0.20
   2 -27  -6    0.48    0.27
  -2 -27   6    0.55    0.23
  -2 -27   6    0.96    0.43
   1 -27  -6    0.20    0.20
  -1 -27   6   -0.34    0.25
  -1  27   6    0.39    0.31
   0 -27  -6    0.61    0.26
   0 -27   6   -0.01    0.37
   0  27   6    0.41    0.29
  -1 -27  -6   -0.06    0.15
   1 -27   6   -0.13    0.43
   1  27   6    0.02    0.25
   2 -27   6    0.18    0.53
   2  27   6    0.91    0.31
   3 -28  -6    0.49    0.27
  -3 -28   6    0.12    0.19
   2 -28  -6    0.32    0.24
  -2 -28   6    0.10    0.19
  -2 -28   6    0.27    0.31
   1 -28  -6    0.23    0.21
  -1 -28   6   -0.12    0.31
   0 -28   6    0.14    0.39
   0 -28  -6    0.55    0.25
   0  28   6    0.64    0.30
   1 -28   6   -0.23    0.39
  -1 -28  -6    0.05    0.20
   1  28   6    0.46    0.28
   2 -28   6   -0.05    0.53
   3 -29  -6    0.54    0.26
  -2 -29   6    0.39    0.26
   2 -29  -6    0.17    0.23
  -2 -29   6    0.65    0.36
  -1 -29   6    0.32    0.38
   1 -29  -6    0.83    0.29
   0 -29  -6    0.77    0.28
   0 -29   6    0.57    0.46
   0  29   6    1.19    0.36
  -1 -29  -6    0.11    0.19
   1 -29   6   -0.29    0.43
   1  29   6    0.42    0.27
   2 -29   6    0.53    0.60
   3 -30  -6    0.19    0.24
  -2 -30   6    0.49    0.35
   2 -30  -6   -0.16    0.20
  -1 -30   6    0.26    0.35
   1 -30  -6    0.11    0.21
   0 -30  -6    0.57    0.27
   0 -30   6    0.60    0.46
   0  30   6    0.15    0.27
   1 -30   6   -0.15    0.44
  -1 -30  -6    0.22    0.24
   1  30   6    0.56    0.28
  -2 -31   6    0.35    0.36
   2 -31  -6    0.09    0.23
   1 -31  -6    0.15    0.20
  -1 -31   6    0.04    0.36
   0 -31   6   -0.31    0.41
   0 -31  -6   -0.17    0.18
   0  31   6    0.48    0.30
  -1 -31  -6    0.42    0.28
   1 -31   6    0.29    0.52
   1 -32  -6    1.21    0.35
  -1 -32   6    0.72    0.46
   0 -32  -6    0.19    0.24
   0 -32   6   -0.15    0.43
  -5   0   7   -0.12    0.22
  -4   0   7   -0.11    0.18
  -3   0   7   -0.06    0.20
  -2   0   7    0.01    0.21
  -1   0   7    0.13    0.26
   0   0   7    0.34    0.32
   1   0   7    0.24    0.33
   2   0   7    0.32    0.31
   3   0   7    0.01    0.26
  -5  -1   7   -0.34    0.20
  -5   1   7    0.10    0.23
  -4  -1   7    0.01    0.21
  -4   1   7   -0.05    0.20
  -3  -1   7    0.00    0.18
  -3   1   7    0.13    0.20
  -2  -1   7    0.01    0.20
  -2   1   7    0.23    0.25
  -1  -1   7    9.43    0.61
  -1  -1   7    8.58    0.61
  -1   1   7    9.60    0.65
   0  -1   7    1.97    0.40
   0  -1   7    1.64    0.36
   0   1   7    1.90    0.42
   1  -1   7    0.46    0.34
   1   1   7    0.41    0.35
   2  -1   7    0.78    0.33
   2   1   7    0.43    0.32
   3  -1   7    0.06    0.29
   3   1   7    0.06    0.27
  -5  -2   7    0.08    0.22
  -5   2   7   -0.16    0.23
  -4  -2   7    0.29    0.21
  -4   2   7   -0.38    0.18
  -3  -2   7    0.10    0.19
  -3   2   7    0.15    0.23
  -2  -2   7    0.37    0.23
  -2   2   7    0.61    0.28
  -1  -2   7    0.22    0.25
  -1  -2   7    0.29    0.18
  -1   2   7    0.90    0.33
   0  -2   7    9.69    0.65
   0  -2   7   12.07    0.73
   0   2   7   10.05    0.70
   1  -2   7    2.34    0.43
   1  -2   7    2.49    0.49
   1   2   7    1.85    0.42
   2  -2   7    0.40    0.32
   2  -2   7   -0.26    0.26
   2   2   7    0.60    0.35
   3  -2   7    1.24    0.38
   3   2   7    0.68    0.33
  -5  -3   7   -0.19    0.22
  -5   3   7   -0.08    0.26
  -4  -3   7    0.01    0.19
  -4   3   7   -0.06    0.22
  -3  -3   7    0.41    0.22
  -3   3   7    0.32    0.24
  -2  -3   7   -0.18    0.18
  -2   3   7    0.14    0.26
  -1  -3   7    0.83    0.30
  -1   3   7    1.32    0.36
   0  -3   7    1.37    0.34
   0  -3   7    0.82    0.27
   0   3   7    1.95    0.41
   1  -3   7    0.65    0.35
   1  -3   7   -0.25    0.16
   1   3   7    0.31    0.33
   2  -3   7    8.67    0.63
   2   3   7   10.44    0.68
   3  -3   7    0.31    0.69
   3   3   7    0.78    0.33
  -5  -4   7    0.23    0.23
  -5   4   7    0.00    0.23
  -4  -4   7   -0.13    0.17
  -4   4   7   -0.05    0.23
  -3  -4   7    0.68    0.23
  -3   4   7    0.49    0.27
  -2  -4   7    0.22    0.22
  -2   4   7    0.05    0.23
  -1  -4   7    0.94    0.30
  -1  -4   7    1.11    0.29
  -1   4   7   -0.22    0.27
   0  -4   7    2.46    0.40
   0   4   7    2.30    0.47
   1  -4   7    0.37    0.29
   1  -4   7    0.20    0.30
   1   4   7    0.95    0.38
   2  -4   7    4.02    0.51
   2  -4   7    5.89    0.76
   2   4   7    4.61    0.53
   3  -4   7   -0.12    0.67
   3   4   7    1.70    0.40
   4  -4   7    0.06    0.80
   4   4   7    0.48    0.27
  -5  -5   7    0.49    0.25
  -5   5   7   -0.20    0.27
  -4  -5   7    0.80    0.29
  -4   5   7    0.90    0.33
  -3  -5   7    4.09    0.48
  -3   5   7    3.49    0.49
  -2  -5   7    0.42    0.23
  -2   5   7    0.62    0.30
  -1  -5   7    0.18    0.18
  -1  -5   7    0.24    0.25
  -1   5   7   -0.07    0.30
   0  -5   7    5.29    0.54
   0  -5   7    5.00    0.58
   0   5   7    5.55    0.60
   1  -5   7    0.15    0.30
   1  -5   7   -0.20    0.25
   1   5   7   -0.28    0.29
   2  -5   7   -0.19    0.42
   2  -5   7   -0.27    0.28
   2   5   7    0.65    0.36
   3  -5   7    1.09    0.69
   3   5   7    2.90    0.46
   4  -5   7   -0.39    0.84
   4   5   7    0.41    0.27
  -5  -6   7   -0.01    0.20
  -5   6   7   -0.31    0.27
  -4  -6   7   -0.06    0.16
  -4   6   7   -0.06    0.24
  -3  -6   7    0.28    0.20
  -3   6   7    0.26    0.28
  -2  -6   7    0.97    0.29
  -2   6   7    0.59    0.33
  -1  -6   7    0.20    0.15
  -1  -6   7   -0.01    0.19
  -1   6   7   -0.16    0.30
   0  -6   7    0.08    0.21
   0  -6   7   -0.26    0.22
   0   6   7    0.32    0.34
   1  -6   7    0.19    0.32
   1  -6   7    0.10    0.31
   1   6   7    0.32    0.32
   2  -6   7    2.59    0.43
   2  -6   7    2.90    0.60
   2   6   7    2.14    0.44
   3  -6   7    0.02    0.61
   3   6   7   -0.13    0.26
   4  -6   7   -0.70    0.84
   4   6   7    0.61    0.30
  -5  -7   7   -0.03    0.17
  -5   7   7   -0.17    0.27
  -4  -7   7    0.88    0.27
  -4   7   7    0.70    0.33
  -3  -7   7   -0.08    0.15
  -3   7   7   -0.10    0.24
  -2  -7   7    0.35    0.21
  -2   7   7   -0.31    0.25
  -1  -7   7    0.16    0.21
  -1  -7   7    0.22    0.16
  -1   7   7    0.06    0.31
   0  -7   7    0.58    0.27
   0  -7   7    0.18    0.25
   0   7   7    1.07    0.41
   1  -7   7   -0.31    0.26
   1  -7   7    0.19    0.29
   1   7   7   -0.10    0.32
   2  -7   7   10.13    0.94
   2  -7   7   10.46    0.68
   2   7   7    8.41    0.65
   3  -7   7    0.51    0.62
   3   7   7    0.87    0.36
   4  -7   7   -0.57    0.86
   4   7   7    0.69    0.32
  -5  -8   7    0.09    0.22
  -4  -8   7    0.75    0.25
  -4   8   7    1.14    0.37
  -3  -8   7    3.21    0.46
  -3   8   7    3.54    0.51
  -2  -8   7   -0.04    0.18
  -2   8   7   -0.11    0.27
  -1  -8   7    0.01    0.19
  -1  -8   7   -0.03    0.14
  -1   8   7    0.14    0.32
   0  -8   7    0.51    0.26
   0  -8   7    0.70    0.29
   0   8   7    0.70    0.38
   1  -8   7    0.57    0.33
   1  -8   7    0.29    0.29
   1   8   7   -0.02    0.33
   2  -8   7   27.61    1.06
   2  -8   7   27.59    1.37
   2   8   7   27.21    1.10
   3  -8   7    2.49    0.76
   3   8   7    3.46    0.50
   4  -8   7    0.27    0.91
   4   8   7    2.39    0.44
  -5  -9   7    0.32    0.23
  -4  -9   7    0.69    0.24
  -4   9   7    0.16    0.30
  -3  -9   7    2.51    0.41
  -3   9   7    2.68    0.48
  -2  -9   7    4.59    0.50
  -2   9   7    3.41    0.52
  -1  -9   7    1.55    0.35
  -1  -9   7    0.92    0.27
  -1   9   7    2.04    0.43
   0  -9   7   -0.01    0.23
   0  -9   7    0.09    0.22
   0   9   7    0.72    0.37
   1  -9   7   -0.28    0.29
   1  -9   7    0.13    0.31
   1   9   7    1.04    0.37
   2  -9   7    1.68    0.54
   2   9   7    1.85    0.42
   3  -9   7    9.89    1.11
   3   9   7   10.81    0.71
   4  -9   7    0.03    0.91
   4   9   7    2.01    0.41
  -5 -10   7    1.07    0.33
  -4 -10   7    0.89    0.27
   4 -10  -7    0.48    0.22
  -4  10   7    0.94    0.37
  -3 -10   7    0.89    0.28
  -3  10   7    0.98    0.37
  -2 -10   7    0.14    0.18
  -2  10   7    0.12    0.33
  -1 -10   7    1.16    0.29
  -1 -10   7    0.86    0.26
  -1  10   7    0.66    0.38
   0 -10   7   -0.21    0.20
   0 -10   7   -0.20    0.18
   0  10   7   -0.25    0.31
   1 -10   7    1.44    0.38
   1 -10   7    1.72    0.46
   1  10   7    1.75    0.43
   2 -10   7    0.10    0.40
   2  10   7    0.38    0.33
   3 -10   7   -0.11    0.58
   3  10   7    1.32    0.37
   4 -10   7   -0.72    0.85
   4  10   7    0.13    0.25
   4 -11  -7    0.13    0.16
  -4 -11   7    0.15    0.19
  -4  11   7   -0.45    0.28
   3 -11  -7   -0.03    0.10
  -3 -11   7    0.22    0.19
  -3  11   7   -0.56    0.27
  -2 -11   7    1.49    0.32
  -2  11   7    2.38    0.47
  -1 -11   7    0.28    0.21
  -1 -11   7   -0.02    0.16
  -1  11   7   -0.28    0.30
   0 -11   7    0.07    0.20
   0 -11   7    0.19    0.25
   0  11   7   -0.05    0.29
   1 -11   7    0.49    0.32
   1 -11   7    0.73    0.39
   1  11   7    0.20    0.33
   2 -11   7    1.00    0.48
   2  11   7    1.53    0.39
   3 -11   7    3.84    0.83
   3  11   7    3.97    0.52
   4 -11   7    0.66    0.95
   4  11   7    0.97    0.33
   4 -12  -7    0.05    0.16
  -4 -12   7    0.08    0.17
  -4  12   7   -0.16    0.30
   3 -12  -7    0.15    0.17
  -3 -12   7   -0.15    0.15
  -3  12   7   -0.12    0.30
  -2 -12   7    1.11    0.29
   2 -12  -7    0.76    0.25
  -2  12   7   -0.24    0.32
  -1 -12   7    1.84    0.39
  -1 -12   7    1.69    0.32
  -1  12   7    2.17    0.48
   0 -12   7    2.23    0.38
   0 -12   7    1.94    0.42
   0  12   7    2.18    0.45
   1 -12   7    1.40    0.45
   1 -12   7    1.08    0.36
   1  12   7    1.62    0.41
   2 -12   7    0.22    0.43
   2  12   7    0.27    0.29
   3 -12   7    0.17    0.57
   3  12   7   -0.01    0.27
   4 -12   7   -1.09    0.82
   4  12   7    0.30    0.27
   4 -13  -7   -0.10    0.12
  -4 -13   7   -0.09    0.16
  -4  13   7   -0.45    0.32
  -3 -13   7   -0.01    0.16
   3 -13  -7    0.04    0.12
  -3  13   7   -0.69    0.33
   2 -13  -7   -0.08    0.11
  -2 -13   7   -0.15    0.15
  -2  13   7   -0.51    0.35
  -1 -13   7    1.07    0.29
  -1 -13   7    1.67    0.38
  -1  13   7    0.70    0.40
   0 -13   7    0.18    0.24
   0 -13   7    0.19    0.25
   0  13   7    0.12    0.34
   1 -13   7    0.42    0.31
   1 -13   7    1.28    0.45
   1  13   7    0.46    0.34
   2 -13   7   -0.09    0.43
   2  13   7    0.10    0.29
   3 -13   7    0.57    0.64
   3  13   7    0.77    0.33
   4 -13   7    0.22    0.91
   4 -14  -7    0.42    0.18
  -4 -14   7   -0.11    0.16
   3 -14  -7    0.49    0.20
  -3 -14   7    1.10    0.29
  -3  14   7    0.97    0.43
  -2 -14   7    0.41    0.22
   2 -14  -7    0.53    0.20
  -2  14   7    0.58    0.38
  -1 -14   7    0.26    0.19
  -1 -14   7    0.73    0.30
  -1  14   7    0.70    0.38
   0 -14   7    0.71    0.28
   0 -14   7    1.30    0.39
   0  14   7    1.41    0.41
   1 -14   7    0.66    0.39
   1  14   7    0.75    0.37
   2 -14   7    0.05    0.44
   2  14   7    0.26    0.30
   3 -14   7   -1.55    0.48
   3  14   7   -0.02    0.25
   4 -14   7   -0.43    0.85
   5 -15  -7    0.40    0.22
   4 -15  -7    0.22    0.19
  -4 -15   7    0.34    0.23
   3 -15  -7    0.53    0.22
  -3 -15   7    0.29    0.20
  -3  15   7    0.43    0.39
  -2 -15   7   -0.12    0.15
   2 -15  -7   -0.02    0.11
  -2  15   7    0.05    0.35
  -1 -15   7    0.65    0.29
  -1 -15   7    0.42    0.22
   1 -15  -7    0.30    0.19
  -1  15   7    0.44    0.38
   0 -15   7   -0.08    0.23
   0 -15   7   -0.02    0.20
   0  15   7    0.45    0.35
   1 -15   7    4.14    0.67
   1  15   7    3.56    0.52
   2 -15   7    0.57    0.47
   2  15   7    0.72    0.32
   3 -15   7   -0.84    0.56
   3  15   7    0.24    0.26
   4 -15   7   -0.92    0.87
   5 -16  -7    0.30    0.21
  -4 -16   7   -0.17    0.18
   4 -16  -7    0.07    0.15
  -3 -16   7    0.58    0.24
   3 -16  -7    0.67    0.23
  -3  16   7    0.44    0.40
   2 -16  -7    0.38    0.18
  -2 -16   7    0.26    0.18
  -2  16   7    0.05    0.35
   1 -16  -7    0.13    0.18
  -1 -16   7    0.78    0.29
  -1 -16   7    0.55    0.23
  -1  16   7    0.98    0.42
   0 -16   7    0.14    0.23
   0 -16   7    0.29    0.28
   0  16   7    0.72    0.38
   1 -16   7    1.89    0.52
   1  16   7    2.04    0.45
   2 -16   7    0.57    0.49
   2  16   7    1.36    0.38
   3 -16   7   -0.81    0.56
   3  16   7    0.47    0.29
   4 -16   7   -0.74    0.87
  -4 -17   7    0.31    0.22
   4 -17  -7    0.42    0.23
  -3 -17   7    0.23    0.18
   3 -17  -7    0.06    0.14
  -3  17   7    0.02    0.39
   2 -17  -7    0.65    0.23
  -2 -17   7    0.48    0.23
  -2  17   7    0.01    0.35
   1 -17  -7    3.55    0.50
  -1 -17   7    3.92    0.47
  -1 -17   7    2.96    0.53
  -1  17   7    3.59    0.55
   0 -17   7    1.66    0.35
   0 -17   7    2.53    0.52
   0  17   7    1.75    0.45
   1 -17   7    1.15    0.46
   1  17   7    2.47    0.46
   2 -17   7    0.37    0.48
   2  17   7    1.15    0.36
   3 -17   7   -0.94    0.56
   3  17   7    0.51    0.28
   4 -18  -7    0.10    0.18
  -4 -18   7   -0.19    0.15
   3 -18  -7    0.06    0.15
  -3 -18   7    0.10    0.18
  -3  18   7   -0.37    0.34
   2 -18  -7    0.33    0.17
  -2 -18   7    0.25    0.21
  -2  18   7    0.05    0.33
  -1 -18   7   -0.10    0.19
  -1 -18   7    0.24    0.23
   1 -18  -7   -0.05    0.13
  -1  18   7    0.16    0.38
   0 -18   7    6.04    0.58
   0 -18   7    6.87    0.82
   0  18   7    6.35    0.66
   1 -18   7    0.37    0.43
   1  18   7    0.87    0.35
   2 -18   7   -0.03    0.45
   2  18   7    0.12    0.28
   3 -18   7   -0.14    0.62
   3  18   7    0.69    0.32
   4 -19  -7    0.43    0.22
   3 -19  -7    0.35    0.21
  -3 -19   7    0.00    0.19
  -2 -19   7    0.63    0.25
   2 -19  -7    0.63    0.23
  -2  19   7    0.84    0.43
   1 -19  -7    0.84    0.27
  -1 -19   7    1.24    0.37
  -1 -19   7    0.72    0.27
  -1  19   7    0.67    0.38
   0 -19   7    0.39    0.33
   0 -19  -7    0.20    0.19
   0  19   7    0.45    0.36
   1 -19   7   -0.05    0.34
   1  19   7   -0.10    0.27
   2 -19   7   -0.18    0.46
   2  19   7    0.37    0.27
   3 -19   7   -0.32    0.61
   4 -20  -7    0.46    0.25
   3 -20  -7    0.20    0.19
  -3 -20   7    0.24    0.21
   2 -20  -7   -0.03    0.12
  -2 -20   7    0.29    0.20
  -2  20   7    0.35    0.37
  -1 -20   7    0.73    0.27
  -1 -20   7    0.74    0.32
   1 -20  -7    0.90    0.27
  -1  20   7    0.71    0.40
   0 -20   7    0.22    0.31
   0 -20  -7    0.25    0.20
   0  20   7    0.06    0.32
   1 -20   7    0.69    0.46
   1  20   7    0.45    0.31
   2 -20   7    0.00    0.47
   2  20   7    0.63    0.27
   3 -20   7    0.49    0.67
   4 -21  -7    0.24    0.21
  -3 -21   7    0.18    0.20
   3 -21  -7    0.20    0.18
   2 -21  -7    0.32    0.19
  -2 -21   7    0.77    0.27
  -2  21   7    0.61    0.40
   1 -21  -7    0.14    0.19
  -1 -21   7    0.45    0.30
  -1 -21   7    0.31    0.22
  -1  21   7    0.47    0.37
   0 -21   7    0.06    0.30
   0 -21  -7   -0.01    0.16
   0  21   7   -0.25    0.29
   1 -21   7   -0.16    0.36
   1  21   7    0.88    0.35
   2 -21   7   -0.02    0.48
   2  21   7    0.55    0.29
   3 -21   7    0.18    0.64
   4 -22  -7    0.30    0.22
  -3 -22   7    0.16    0.20
   3 -22  -7    0.20    0.17
   2 -22  -7    0.13    0.17
  -2 -22   7    0.58    0.26
  -2 -22   7    0.25    0.19
  -2  22   7   -0.05    0.35
   1 -22  -7   -0.11    0.14
  -1 -22   7    0.05    0.21
  -1 -22   7    0.13    0.24
  -1  22   7   -0.23    0.31
   0 -22   7    0.06    0.31
   0 -22  -7    0.25    0.19
   0  22   7   -0.06    0.28
   1 -22   7   -0.21    0.39
   1  22   7    0.54    0.31
   2 -22   7   -0.77    0.42
   2  22   7    0.86    0.30
   3 -22   7   -0.25    0.65
  -3 -23   7    0.12    0.20
   3 -23  -7    0.38    0.21
  -2 -23   7    1.23    0.40
  -2 -23   7    1.62    0.34
   2 -23  -7    0.63    0.28
  -2  23   7    1.60    0.43
   1 -23  -7    0.14    0.19
  -1 -23   7    0.11    0.22
  -1 -23   7    0.47    0.32
  -1  23   7    0.02    0.32
   0 -23   7   -0.02    0.32
   0 -23  -7    0.11    0.17
   0  23   7    0.13    0.31
   1 -23   7   -0.11    0.42
   1  23   7    0.20    0.26
   2 -23   7    0.24    0.53
   3 -24  -7    0.89    0.29
  -3 -24   7    0.93    0.29
   2 -24  -7    0.35    0.21
  -2 -24   7    0.50    0.31
  -2 -24   7    0.73    0.27
   1 -24  -7    0.04    0.16
  -1 -24   7   -0.09    0.27
  -1  24   7    0.18    0.33
   0 -24  -7   -0.10    0.16
   0 -24   7    0.09    0.34
   0  24   7    0.76    0.36
   1 -24   7   -0.34    0.37
   1  24   7   -0.12    0.25
   2 -24   7   -0.08    0.52
   3 -25  -7    0.14    0.20
   2 -25  -7    0.15    0.20
  -2 -25   7    0.44    0.30
  -2 -25   7    0.07    0.19
   1 -25  -7    0.23    0.22
  -1 -25   7   -0.06    0.27
  -1  25   7    0.22    0.35
   0 -25   7    0.56    0.46
   0 -25  -7    0.36    0.22
   0  25   7    1.00    0.40
   1 -25   7   -0.65    0.37
   1  25   7    0.53    0.30
   2 -25   7   -0.55    0.50
   3 -26  -7    0.10    0.20
   2 -26  -7    0.24    0.22
  -2 -26   7    0.17    0.22
  -2 -26   7    0.02    0.22
   1 -26  -7    0.25    0.23
  -1 -26   7    0.12    0.34
  -1  26   7    0.50    0.35
   0 -26   7   -0.50    0.32
   0 -26  -7    0.02    0.17
   0  26   7    0.14    0.32
  -1 -26  -7    0.07    0.19
   1 -26   7   -0.24    0.39
   2 -26   7    0.07    0.54
  -2 -27   7    0.22    0.21
  -2 -27   7    0.24    0.35
   2 -27  -7   -0.03    0.20
  -1 -27   7   -0.04    0.31
   1 -27  -7    0.01    0.18
  -1  27   7    0.51    0.35
   0 -27   7   -0.10    0.38
   0 -27  -7    0.94    0.32
   0  27   7    1.26    0.41
  -1 -27  -7    0.08    0.21
   1 -27   7   -0.03    0.44
   2 -28  -7   -0.11    0.20
  -2 -28   7    0.20    0.37
  -1 -28   7    0.91    0.48
   1 -28  -7    1.53    0.39
  -1  28   7    1.79    0.43
   0 -28   7    0.68    0.53
   0 -28  -7    0.72    0.28
   0  28   7    0.82    0.34
  -1 -28  -7    0.35    0.26
   1 -28   7    0.24    0.46
   1 -29  -7    0.42    0.26
  -1 -29   7   -0.20    0.38
   0 -29  -7    0.20    0.19
   0 -29   7    0.23    0.48
  -4   0   8   -0.15    0.26
  -3   0   8    0.20    0.25
  -2   0   8   -0.46    0.22
  -1   0   8   -0.16    0.27
   0   0   8    4.39    0.58
   1   0   8    2.66    0.49
   2   0   8    0.34    0.34
   3   0   8    0.43    0.32
  -4  -1   8    0.17    0.27
  -4   1   8   -0.13    0.25
  -3  -1   8    0.17    0.25
  -3   1   8    0.15    0.26
  -2  -1   8   -0.17    0.20
  -2   1   8   -0.10    0.26
  -1  -1   8   -0.16    0.27
  -1   1   8    0.48    0.34
   0  -1   8    0.89    0.37
   0   1   8    0.74    0.37
   1  -1   8   -0.07    0.34
   1   1   8    0.42    0.36
   2  -1   8    0.28    0.35
   2   1   8    0.23    0.34
   3   1   8    0.46    0.32
  -4  -2   8    0.06    0.22
  -4   2   8   -0.12    0.26
  -3  -2   8    0.14    0.25
  -3   2   8    0.24    0.29
  -2  -2   8   -0.28    0.24
  -2   2   8   -0.43    0.26
  -1  -2   8   -0.18    0.28
  -1   2   8    0.05    0.32
   0  -2   8   -0.25    0.30
   0   2   8    0.20    0.35
   1  -2   8   -0.29    0.31
   1   2   8   -0.16    0.32
   2  -2   8   -0.01    0.31
   2   2   8    0.49    0.35
   3   2   8    0.16    0.30
  -5   3   8   -0.29    0.32
  -4  -3   8    0.04    0.23
  -4   3   8   -0.32    0.25
  -3  -3   8    0.09    0.22
  -3   3   8   -0.58    0.24
  -2  -3   8   -0.11    0.25
  -2   3   8    0.13    0.30
  -1  -3   8    0.97    0.34
  -1   3   8    1.01    0.39
   0  -3   8   -0.06    0.29
   0   3   8    0.00    0.35
   1  -3   8   -0.24    0.30
   1   3   8   -0.30    0.33
   2  -3   8   -0.45    0.29
   2   3   8    0.10    0.33
   3   3   8    0.46    0.33
  -5   4   8   -0.29    0.31
  -4  -4   8   -0.19    0.21
  -4   4   8    0.15    0.30
  -3  -4   8   -0.12    0.18
  -3   4   8   -0.33    0.27
  -2  -4   8   -0.03    0.25
  -2   4   8   -0.33    0.28
  -1  -4   8   -0.22    0.23
  -1   4   8   -0.04    0.32
   0  -4   8    0.50    0.32
   0   4   8   -0.41    0.31
   1  -4   8   -0.10    0.34
   1   4   8   -0.04    0.33
   2  -4   8    1.27    0.40
   2   4   8    1.13    0.38
   3   4   8    0.89    0.37
  -5   5   8   -0.23    0.32
  -4  -5   8    0.23    0.24
  -4   5   8    0.09    0.30
  -3  -5   8    0.31    0.25
  -3   5   8   -0.03    0.28
  -2  -5   8    0.18    0.23
  -2   5   8   -0.14    0.29
  -1  -5   8    0.03    0.27
  -1  -5   8    0.38    0.22
  -1   5   8   -0.07    0.32
   0  -5   8   -0.35    0.27
   0  -5   8   -0.25    0.21
   0   5   8    0.01    0.34
   1  -5   8    2.37    0.48
   1   5   8    2.62    0.51
   2  -5   8    2.05    0.44
   2   5   8    2.25    0.47
   3   5   8    0.46    0.33
  -5   6   8   -0.50    0.32
  -4  -6   8   -0.09    0.22
  -4   6   8   -0.34    0.27
  -3  -6   8    0.36    0.25
  -3   6   8   -0.11    0.30
  -2  -6   8    0.26    0.27
  -2   6   8    0.60    0.36
  -1  -6   8    0.00    0.18
  -1  -6   8   -0.35    0.23
  -1   6   8   -0.28    0.31
   0  -6   8   -0.09    0.25
   0  -6   8    0.15    0.30
   0   6   8    0.83    0.42
   1  -6   8   -0.05    0.33
   1  -6   8    0.45    0.37
   1   6   8    0.56    0.38
   2  -6   8    0.16    0.36
   2   6   8    0.64    0.37
   3   6   8    0.45    0.33
  -5   7   8   -0.85    0.32
  -4  -7   8    0.61    0.29
  -4   7   8   -0.19    0.31
  -3  -7   8    0.53    0.28
  -3   7   8    0.28    0.35
  -2  -7   8    0.23    0.26
  -2   7   8   -0.13    0.33
  -1  -7   8    0.13    0.27
  -1  -7   8    0.65    0.28
  -1   7   8    0.48    0.38
   0  -7   8   -0.41    0.25
   0  -7   8    0.03    0.28
   0   7   8   -0.17    0.36
   1  -7   8    0.29    0.36
   1  -7   8   -0.11    0.33
   1   7   8    0.08    0.36
   2  -7   8    4.03    0.75
   2   7   8    4.60    0.60
   3   7   8    1.53    0.40
  -5   8   8   -0.86    0.35
  -4  -8   8    0.94    0.31
  -4   8   8    0.10    0.35
  -3  -8   8   -0.11    0.22
  -3   8   8    0.20    0.37
  -2  -8   8   -0.34    0.20
  -2   8   8    0.35    0.38
  -1  -8   8    0.28    0.23
  -1  -8   8    0.08    0.26
  -1   8   8    0.09    0.33
   0  -8   8   -0.21    0.25
   0  -8   8   -0.03    0.28
   0   8   8   -0.10    0.35
   1  -8   8    6.60    0.65
   1  -8   8    7.68    0.84
   1   8   8    6.73    0.70
   2  -8   8    0.87    0.55
   2   8   8    1.18    0.40
   3  -8   8    0.30    0.67
   3   8   8    1.02    0.36
  -4  -9   8   -0.08    0.21
  -4   9   8   -0.10    0.36
  -3  -9   8    1.05    0.33
  -3   9   8    0.37    0.38
  -2  -9   8   -0.09    0.22
  -2   9   8    0.40    0.37
  -1  -9   8    0.05    0.24
  -1  -9   8    0.07    0.21
  -1   9   8    0.64    0.41
   0  -9   8    0.34    0.31
   0  -9   8    0.49    0.32
   0   9   8    0.43    0.39
   1  -9   8   -0.29    0.30
   1  -9   8    0.26    0.36
   1   9   8    0.29    0.36
   2  -9   8    0.40    0.51
   2   9   8    1.47    0.44
   3  -9   8   -0.33    0.63
   3   9   8    0.45    0.31
  -4 -10   8    0.12    0.21
  -4  10   8   -0.77    0.29
  -3 -10   8    1.43    0.36
  -3  10   8    0.19    0.35
  -2 -10   8    0.08    0.21
  -2  10   8   -0.48    0.32
  -1 -10   8    0.16    0.26
  -1 -10   8    0.53    0.25
  -1  10   8    0.17    0.36
   0 -10   8    0.82    0.36
   0 -10   8    0.56    0.32
   0  10   8    1.25    0.44
   1 -10   8    2.62    0.49
   1 -10   8    1.52    0.49
   1  10   8    2.00    0.47
   2 -10   8    1.04    0.56
   2  10   8    1.95    0.45
   3 -10   8   -0.18    0.62
   3  10   8    0.35    0.31
  -4  11   8    1.75    0.52
  -3 -11   8    0.24    0.26
  -3  11   8   -0.26    0.36
  -2 -11   8    0.34    0.25
  -2  11   8    0.53    0.40
  -1 -11   8    0.26    0.24
  -1 -11   8   -0.32    0.19
  -1  11   8    0.38    0.39
   0 -11   8    2.29    0.49
   0 -11   8    2.85    0.45
   0  11   8    1.88    0.45
   1 -11   8    1.95    0.55
   1 -11   8    2.32    0.45
   1  11   8    2.26    0.48
   2 -11   8    2.67    0.65
   2  11   8    3.34    0.53
   3 -11   8    0.47    0.67
  -4  12   8    1.38    0.49
  -3 -12   8    0.03    0.21
  -3  12   8   -0.20    0.36
  -2 -12   8    0.40    0.27
  -2  12   8   -0.06    0.41
  -1 -12   8    2.33    0.43
  -1 -12   8    1.91    0.43
  -1  12   8    1.98    0.51
   0 -12   8    1.39    0.43
   0 -12   8    1.63    0.40
   0  12   8    0.66    0.40
   1 -12   8    0.53    0.40
   1  12   8    0.09    0.34
   2 -12   8    0.90    0.53
   2  12   8    1.07    0.38
   3 -12   8   -0.12    0.63
  -4  13   8   -0.52    0.42
  -3 -13   8    0.74    0.30
  -3  13   8    1.06    0.44
  -2 -13   8    0.12    0.21
  -2  13   8    0.06    0.38
  -1 -13   8    5.07    0.58
  -1 -13   8    5.96    0.73
  -1  13   8    6.05    0.70
   0 -13   8    0.15    0.31
   0 -13   8   -0.33    0.24
   0  13   8    0.14    0.34
   1 -13   8   -0.46    0.30
   1  13   8   -0.10    0.31
   2 -13   8   -0.32    0.41
   2  13   8    0.09    0.31
   3 -13   8   -1.18    0.54
  -3 -14   8    0.31    0.26
  -3  14   8   -0.11    0.40
  -2 -14   8   -0.19    0.18
  -2  14   8   -0.68    0.35
  -1 -14   8    4.94    0.57
  -1 -14   8    4.43    0.65
  -1  14   8    4.67    0.62
   0 -14   8    1.98    0.41
   0 -14   8    2.09    0.50
   0  14   8    1.92    0.48
   1 -14   8   -0.40    0.32
   1  14   8    0.08    0.33
   2 -14   8   -0.50    0.41
   2  14   8   -0.31    0.27
   3 -14   8   -0.26    0.65
   4 -15  -8    0.92    0.31
  -3 -15   8    1.76    0.42
  -3  15   8    1.19    0.48
  -2 -15   8    0.98    0.32
  -2  15   8    1.19    0.47
  -1 -15   8   10.41    0.71
  -1 -15   8   10.44    0.84
  -1  15   8   10.80    0.80
   0 -15   8    1.59    0.47
   0 -15   8    1.71    0.41
   0  15   8    2.28    0.51
   1 -15   8   -0.12    0.35
   1  15   8    0.65    0.34
   2 -15   8    0.73    0.53
   2  15   8    1.42    0.40
   3 -15   8   -1.40    0.59
   4 -16  -8    0.02    0.17
  -3 -16   8    1.28    0.36
   3 -16  -8    1.87    0.39
  -3  16   8    0.83    0.46
  -2 -16   8    2.07    0.42
  -2 -16   8    2.06    0.46
  -2  16   8    1.05    0.48
  -1 -16   8    0.23    0.26
  -1 -16   8   -0.12    0.23
  -1  16   8   -0.21    0.37
   0 -16   8    0.76    0.40
   0 -16   8    0.05    0.29
   0  16   8    0.74    0.40
   1 -16   8    0.89    0.45
   1  16   8    1.38    0.40
   2 -16   8   -0.35    0.46
   4 -17  -8   -0.25    0.16
  -3 -17   8   -0.09    0.21
   3 -17  -8   -0.01    0.15
  -3  17   8   -0.41    0.44
   2 -17  -8    0.27    0.16
  -2 -17   8    0.84    0.29
  -2 -17   8    0.07    0.21
  -2  17   8    0.39    0.41
  -1 -17   8    0.11    0.25
  -1 -17   8    0.14    0.25
  -1  17   8    0.51    0.42
   0 -17   8    0.72    0.41
   0  17   8    0.82    0.40
   1 -17   8    1.57    0.55
   1  17   8    0.57    0.37
   2 -17   8   -0.16    0.49
   3 -18  -8    0.21    0.20
  -3  18   8    0.10    0.49
  -2 -18   8    0.03    0.22
  -2 -18   8    0.35    0.24
   2 -18  -8    0.05    0.18
  -2  18   8   -0.30    0.37
  -1 -18   8   -0.04    0.23
  -1 -18   8    0.10    0.25
  -1  18   8   -0.55    0.33
   0 -18   8    0.44    0.37
   0  18   8    1.46    0.44
   1 -18   8    0.41    0.43
   1  18   8    0.15    0.30
   2 -18   8   -0.10    0.49
   3 -19  -8    0.24    0.18
   2 -19  -8    0.28    0.21
  -2 -19   8    0.35    0.27
  -2 -19   8    1.27    0.39
  -2  19   8    1.07    0.49
  -1 -19   8    2.04    0.42
  -1 -19   8    2.43    0.55
  -1  19   8    3.11    0.57
   0 -19   8   -0.29    0.28
   0  19   8    0.72    0.37
   1 -19   8   -0.34    0.37
   1  19   8    0.89    0.35
   2 -19   8   -0.08    0.51
   3 -20  -8    0.20    0.19
  -2 -20   8   -0.09    0.19
   2 -20  -8    0.05    0.19
  -2 -20   8    0.75    0.33
  -2  20   8    0.02    0.37
  -1 -20   8    1.08    0.35
  -1 -20   8    1.58    0.45
  -1  20   8    1.21    0.45
   0 -20   8   -0.06    0.34
   0  20   8    0.00    0.35
   1 -20   8   -0.53    0.38
   2 -20   8   -0.60    0.46
   3 -21  -8    0.31    0.22
  -2 -21   8    0.23    0.24
   2 -21  -8   -0.05    0.13
  -2 -21   8    0.45    0.28
  -2  21   8   -0.25    0.39
  -1 -21   8   -0.19    0.22
  -1 -21   8    0.10    0.27
   1 -21  -8   -0.03    0.18
  -1  21   8   -0.40    0.32
   0 -21   8   -0.39    0.30
   0  21   8    0.23    0.34
   1 -21   8   -0.02    0.44
   2 -22  -8    0.36    0.22
  -2 -22   8    0.54    0.31
  -2 -22   8    0.36    0.26
  -2  22   8    0.20    0.41
  -1 -22   8    0.08    0.31
   1 -22  -8    0.08    0.18
  -1  22   8    0.33    0.38
   0 -22   8    0.43    0.39
   0  22   8    1.01    0.39
   1 -22   8   -0.04    0.44
   2 -23  -8   -0.10    0.16
  -2 -23   8    0.17    0.28
  -2 -23   8    0.05    0.24
  -2  23   8   -0.60    0.38
   1 -23  -8   -0.01    0.20
  -1 -23   8    0.70    0.42
  -1  23   8    0.50    0.40
   0 -23   8   -0.16    0.35
   1 -23   8   -0.08    0.46
   2 -24  -8    0.31    0.25
  -1 -24   8   -0.24    0.28
   1 -24  -8    0.14    0.23
  -1  24   8    0.23    0.39
   0 -24   8   -0.40    0.34
   1 -25  -8   -0.16    0.17
  -1 -25   8   -0.40    0.28
  -3   0   9   -0.14    0.28
  -2   0   9   -0.51    0.23
  -1   0   9    0.06    0.34
   0   0   9   -0.36    0.35
   1   0   9    0.15    0.36
   2   0   9    0.02    0.35
  -3  -1   9   -0.17    0.26
  -3   1   9   -0.13    0.28
  -2  -1   9   -0.31    0.28
  -2   1   9   -0.18    0.29
  -1  -1   9   -0.20    0.33
  -1   1   9    0.85    0.40
   0  -1   9    0.11    0.38
   0   1   9    0.15    0.39
   1  -1   9    0.29    0.40
   1   1   9    0.44    0.39
   2  -1   9   -0.03    0.36
   2   1   9   -0.21    0.32
  -3  -2   9   -0.29    0.25
  -3   2   9    0.06    0.30
  -2  -2   9   -0.04    0.30
  -2   2   9    0.78    0.38
  -1  -2   9   -0.23    0.30
  -1   2   9   -0.38    0.34
   0  -2   9   -0.25    0.32
   0   2   9    0.13    0.38
   1  -2   9   -0.08    0.38
   1   2   9    0.54    0.39
   2  -2   9   -0.21    0.32
   2   2   9   -0.31    0.31
  -3  -3   9    0.13    0.30
  -3   3   9    0.09    0.32
  -2  -3   9    0.40    0.34
  -2   3   9   -0.15    0.32
  -1  -3   9   -0.30    0.29
  -1   3   9   -0.53    0.32
   0  -3   9   -0.34    0.32
   0   3   9   -0.17    0.37
   1  -3   9    0.86    0.46
   1   3   9    0.64    0.41
   2  -3   9    0.43    0.38
   2   3   9    0.27    0.36
  -3  -4   9   -0.14    0.25
  -3   4   9   -0.52    0.28
  -2  -4   9    0.43    0.33
  -2   4   9   -0.31    0.32
  -1  -4   9    0.39    0.35
  -1   4   9    0.01    0.38
   0  -4   9    0.38    0.37
   0   4   9    0.70    0.45
   1  -4   9   -0.37    0.36
   1   4   9   -0.51    0.31
   2  -4   9    0.68    0.41
   2   4   9    0.89    0.41
  -3   5   9    0.10    0.34
  -2  -5   9   -0.08    0.26
  -2   5   9   -0.61    0.30
  -1  -5   9   -0.05    0.30
  -1   5   9    0.35    0.41
   0  -5   9    0.58    0.39
   0   5   9   -0.17    0.37
   1  -5   9    2.27    0.51
   1   5   9    2.12    0.50
   2   5   9   -0.02    0.35
  -3   6   9   -0.26    0.35
  -2  -6   9    0.15    0.31
  -2   6   9    0.05    0.37
  -1  -6   9    0.52    0.36
  -1   6   9    0.22    0.38
   0  -6   9   -0.07    0.36
   0   6   9   -0.22    0.37
   1  -6   9   -0.65    0.34
   1   6   9    0.41    0.40
  -3   7   9    0.10    0.39
  -2  -7   9    0.07    0.27
  -2   7   9    0.41    0.39
  -1  -7   9    2.41    0.47
  -1   7   9    1.42    0.46
   0  -7   9   -0.60    0.28
   0   7   9    0.15    0.38
   1  -7   9    1.91    0.49
   1   7   9    3.21    0.57
  -3   8   9   -0.02    0.38
  -2  -8   9   -0.08    0.28
  -2  -8   9    0.04    0.19
  -2   8   9   -0.18    0.36
  -1  -8   9   -0.05    0.32
  -1   8   9   -0.14    0.38
   0  -8   9   -0.36    0.31
   0   8   9   -0.32    0.35
   1  -8   9   -0.13    0.34
   1   8   9    0.53    0.41
  -3   9   9   -0.18    0.43
  -2  -9   9    0.08    0.29
  -2  -9   9    0.88    0.31
  -2   9   9    0.23    0.42
  -1  -9   9    0.29    0.33
  -1  -9   9   -0.03    0.26
  -1   9   9    0.50    0.43
   0  -9   9   -0.15    0.35
   0   9   9    0.50    0.41
   1  -9   9   -0.62    0.37
   1   9   9    0.23    0.37
  -2 -10   9    0.67    0.34
  -2 -10   9    1.15    0.36
  -2  10   9    1.56    0.51
  -1 -10   9   -0.12    0.30
  -1 -10   9   -0.19    0.24
  -1  10   9   -0.27    0.38
   0 -10   9    0.74    0.38
   0 -10   9    1.27    0.46
   0  10   9    1.32    0.48
  -2 -11   9    0.52    0.26
  -2 -11   9   -0.25    0.25
  -2  11   9   -0.25    0.43
  -1 -11   9    0.19    0.31
  -1 -11   9    0.68    0.34
  -1  11   9    0.32    0.43
   0 -11   9    0.82    0.43
   0 -11   9    0.29    0.38
   0  11   9    0.55    0.41
   1 -11   9    3.28    0.68
  -2 -12   9    0.29    0.26
  -2 -12   9   -0.12    0.28
  -2  12   9   -0.73    0.40
  -1 -12   9   -0.02    0.26
  -1 -12   9    0.01    0.28
  -1  12   9    0.29    0.42
   0 -12   9   -0.26    0.29
   0 -12   9   -0.15    0.30
   0  12   9    0.14    0.37
   1 -12   9    1.27    0.57
   2 -12   9    1.76    0.69
  -2 -13   9    0.03    0.23
  -2 -13   9    0.23    0.31
  -2  13   9    0.47    0.48
  -1 -13   9   -0.14    0.29
  -1 -13   9   -0.47    0.22
  -1  13   9   -0.04    0.39
   0 -13   9    1.19    0.41
   0 -13   9    2.28    0.58
   1 -13   9    0.15    0.44
  -2 -14   9    0.41    0.31
  -1 -14   9    0.63    0.36
  -1 -14   9    0.09    0.32
  -1  14   9    1.21    0.50
   0 -14   9    0.79    0.39
   0 -14   9    0.43    0.41
   1 -14   9   -0.21    0.40
  -2 -15   9    0.83    0.37
  -1 -15   9    0.53    0.38
  -1 -15   9    0.05    0.30
   0 -15   9    0.08    0.38
   1 -15   9    0.14    0.46
  -2 -16   9    0.06    0.26
  -1 -16   9    0.79    0.39
  -1 -16   9    0.49    0.34
   0 -16   9   -0.11    0.32
   1 -16   9   -0.10    0.42
  -2 -17   9    0.15    0.25
  -1 -17   9   -0.20    0.26
  -1 -17   9   -0.11    0.28
   0 -17   9    0.00    0.38
  -1 -18   9   -0.15    0.31
  -1 -18   9    0.12    0.31
   0 -18   9    0.79    0.46
  -1 -19   9   -0.33    0.29
   0   0   0    0.00    0.00
;
_shelx_hkl_checksum     37354
_shelx_res_file
;
    xb9259_0m.res created by SHELXL-2014/7
TITL xb9259_0m in P2(1)/c P21/c
CELL 0.71073 5.8043 31.562 7.898 90 95.86 90
ZERR 4 0.0016 0.009 0.002 0 0.006 0
LATT 1
SYMM -X,0.5+Y,0.5-Z
SFAC C H N O
UNIT 56 56 32 4
L.S. 20
PLAN  20
SIZE 0.356 0.273 0.134
TEMP 23
BOND $h
HTAB
CONF
fmap 2
acta
OMIT -3 50.2
OMIT 0 2 0
REM <olex2.extras>
REM <HklSrc "%.\\xb9259_0m.hkl">
REM </olex2.extras>
WGHT    0.082200    0.807300
FVAR       0.16638
N1    3    0.472493    0.178535    0.975934    11.00000    0.03891    0.04460 =
         0.05095    0.00001   -0.00980    0.00867
N2    3    0.659176    0.155103    1.043261    11.00000    0.03379    0.03778 =
         0.04409    0.00064   -0.00786    0.00175
N3    3    0.477861    0.096820    0.907137    11.00000    0.03624    0.04161 =
         0.05040   -0.00176   -0.00954   -0.00018
N4    3    0.483374    0.057314    0.854424    11.00000    0.03717    0.03990 =
         0.05044   -0.00149   -0.00973   -0.00065
N5    3    0.853022    0.089873    1.055180    11.00000    0.03591    0.03727 =
         0.04345   -0.00237   -0.00780    0.00010
N6    3    0.859769    0.049841    1.005690    11.00000    0.03718    0.03636 =
         0.04494   -0.00140   -0.00735   -0.00007
N7    3    0.703528   -0.004180    0.839545    11.00000    0.03772    0.03711 =
         0.05287   -0.00553   -0.01310    0.00045
AFIX  43
H7    2    0.827266   -0.018445    0.869414    11.00000   -1.20000
AFIX   0
N8    3    0.528476   -0.021861    0.730701    11.00000    0.03845    0.04120 =
         0.04474   -0.00218   -0.00944   -0.00518
O1    4   -0.061700   -0.151671    0.235629    11.00000    0.04749    0.06927 =
         0.06585   -0.01759   -0.02201   -0.00544
AFIX 147
H1    2   -0.179730   -0.138396    0.203980    11.00000   -1.50000
AFIX   0
C1    1    0.339353    0.251605    0.995363    11.00000    0.05905    0.04965 =
         0.07608    0.00309   -0.00691    0.01513
AFIX  33
H1A   2    0.393490    0.277205    1.051788    11.00000   -1.50000
H1B   2    0.322734    0.256056    0.874490    11.00000   -1.50000
H1C   2    0.192244    0.243886    1.031828    11.00000   -1.50000
AFIX   0
C2    1    0.510037    0.216822    1.038944    11.00000    0.04275    0.03893 =
         0.05237    0.00589    0.00007    0.00513
C3    1    0.718168    0.218790    1.145805    11.00000    0.04672    0.03852 =
         0.06208   -0.00140   -0.00649    0.00079
AFIX  43
H3    2    0.780055    0.242462    1.204015    11.00000   -1.20000
AFIX   0
C4    1    0.812357    0.178958    1.147537    11.00000    0.03897    0.03514 =
         0.04831   -0.00085   -0.00659   -0.00217
C5    1    1.030813    0.162865    1.239937    11.00000    0.04435    0.04434 =
         0.06837   -0.00490   -0.02163   -0.00153
AFIX  33
H5A   2    1.048451    0.133359    1.214720    11.00000   -1.50000
H5B   2    1.159696    0.178431    1.204584    11.00000   -1.50000
H5C   2    1.025382    0.166412    1.360185    11.00000   -1.50000
AFIX   0
C6    1    0.665779    0.112389    0.998868    11.00000    0.03338    0.03627 =
         0.03529    0.00184   -0.00362   -0.00159
C7    1    0.680516    0.035345    0.898839    11.00000    0.03274    0.03827 =
         0.03643    0.00380   -0.00589   -0.00273
C8    1    0.566929   -0.059093    0.679018    11.00000    0.03510    0.04061 =
         0.04604   -0.00013   -0.00701   -0.00147
AFIX  43
H8    2    0.706526   -0.072229    0.715847    11.00000   -1.20000
AFIX   0
C9    1    0.397100   -0.081782    0.563088    11.00000    0.03543    0.04299 =
         0.03726    0.00184   -0.00444   -0.00308
C10   1    0.444387   -0.122797    0.513405    11.00000    0.03588    0.04846 =
         0.04966   -0.00511   -0.01135    0.00555
AFIX  43
H10   2    0.583780   -0.135342    0.554962    11.00000   -1.20000
AFIX   0
C11   1    0.290213   -0.145369    0.404200    11.00000    0.04574    0.04099 =
         0.05644   -0.01078   -0.00801    0.00157
AFIX  43
H11   2    0.326012   -0.172766    0.372332    11.00000   -1.20000
AFIX   0
C12   1    0.080945   -0.127072    0.341774    11.00000    0.03644    0.05582 =
         0.03816   -0.00361   -0.00694   -0.00754
C13   1    0.029181   -0.086070    0.388060    11.00000    0.03045    0.05331 =
         0.04626    0.00451   -0.00823    0.00325
AFIX  43
H13   2   -0.110133   -0.073666    0.345430    11.00000   -1.20000
AFIX   0
C14   1    0.185558   -0.063619    0.498006    11.00000    0.03718    0.04071 =
         0.04856    0.00200   -0.00426    0.00177
AFIX  43
H14   2    0.149959   -0.036154    0.529122    11.00000   -1.20000
AFIX   0
HKLF 4 1 -1 0 0 0 1 0 0 0 -1
REM  xb9259_0m in P2(1)/c P21/c
REM R1 =  0.0585 for    1640 Fo > 4sig(Fo)  and  0.0961 for all    2552 data
REM    209 parameters refined using      0 restraints
END
WGHT      0.0822      0.8073
REM Instructions for potential hydrogen bonds
EQIV $1 -x+2, -y, -z+2
HTAB N7 N6_$1
EQIV $2 -x, -y, -z+1
HTAB O1 N1_$2
HTAB O1 N3_$2
HTAB C5 N5
EQIV $3 x+1, y, z
HTAB C5 N1_$3
HTAB C13 N4_$2
REM Highest difference peak  0.361,  deepest hole -0.353,  1-sigma level  0.053
Q1    1   0.9968  0.1338  1.3157  11.00000  0.05    0.36
Q2    1   1.1398  0.1529  1.1381  11.00000  0.05    0.36
Q3    1   0.2045  0.2359  0.9190  11.00000  0.05    0.35
Q4    1   0.4240  0.2771  0.9283  11.00000  0.05    0.30
Q5    1   1.1008  0.1852  1.3141  11.00000  0.05    0.30
Q6    1   0.2936  0.2641  1.1378  11.00000  0.05    0.29
Q7    1   0.4263 -0.0734  0.3746  11.00000  0.05    0.15
Q8    1   0.3696  0.0433  0.7887  11.00000  0.05    0.15
Q9    1   0.1601 -0.1372  0.4072  11.00000  0.05    0.15
Q10   1   0.7336  0.2621  1.3249  11.00000  0.05    0.15
Q11   1   0.3230 -0.0708  0.5135  11.00000  0.05    0.14
Q12   1   0.7679  0.1999  1.1947  11.00000  0.05    0.14
Q13   1   0.0702 -0.0401  0.6282  11.00000  0.05    0.14
Q14   1   0.9526  0.0968  1.1420  11.00000  0.05    0.13
Q15   1   0.2804 -0.2104  0.3384  11.00000  0.05    0.12
Q16   1   0.2801  0.1523  0.9971  11.00000  0.05    0.12
Q17   1   0.3117 -0.0801  0.5629  11.00000  0.05    0.12
Q18   1   0.0433  0.2105  0.9991  11.00000  0.05    0.12
Q19   1  -0.0399  0.2413  0.9398  11.00000  0.05    0.12
Q20   1  -0.1092 -0.0899  0.5302  11.00000  0.05    0.12
;
_shelx_res_checksum     74313
