_chemical_name_common             ?
_chemical_melting_point           ?
_chemical_formula_iupac           'C120 H192 N72 Zn12'
_chemical_formula_moiety          'C120 H192 N72 Zn12'
_chemical_formula_sum             'C120 H192 N72 Zn12'
_chemical_formula_weight          3427.920
_chemical_compound_source         ?
_chemical_absolute_configuration  ?
_exptl_crystal_description        'EDIT-ENTRY'
_diffrn_measurement_device_type   'EDIT-ENTRY'
 
_space_group_IT_number            1
_space_group_crystal_system       cubic
_symmetry_space_group_name_Hall   'P 1'
_symmetry_space_group_name_H-M    'P 1'
 
loop_
_space_group_symop_operation_xyz
'+x,+y,+z'
 
_cell_length_a                    16.9910
_cell_length_b                    16.9910
_cell_length_c                    16.9910
_cell_angle_alpha                 90.0000
_cell_angle_beta                  90.0000
_cell_angle_gamma                 90.0000
_cell_volume                      4905.2011
 
loop_
 _atom_site_label
 _atom_site_type_symbol
 _atom_site_fract_x
 _atom_site_fract_y
 _atom_site_fract_z
C1  C0.356+  0.623212  0.319911  0.912259
H1  H0.098-  0.592162  0.421525  0.073334
N1  N0.878-  0.675753  0.422125  0.975401
Zn1  Zn1.050+  0.758485  0.500034  0.999993
C2  C0.394+  0.690121  0.374763  0.914438
C3  C0.803+  0.608982  0.400807  0.013247
N2  N0.899-  0.576219  0.340884  0.972480
C4  C0.063-  0.626926  0.234594  0.871662
C5  C0.264+  0.562441  0.254490  0.805520
H2  H0.093-  0.612803  0.190151  0.916841
H3  H0.007+  0.742317  0.372419  0.875778
H4  H0.075-  0.685245  0.217954  0.848179
H5  H0.014-  0.580665  0.300850  0.763655
H6  H0.040-  0.504907  0.272859  0.830338
N3  N0.878-  0.555145  0.187393  0.753765
H7  H0.288+  0.524288  0.183472  0.702537
H8  H0.402+  0.544454  0.133041  0.775299
C6  C0.356+  0.376797  0.680101  0.912245
C7  C0.394+  0.309926  0.625223  0.914374
N4  N0.878-  0.324303  0.577887  0.975351
C8  C0.804+  0.391009  0.599152  0.013213
N5  N0.899-  0.423730  0.659095  0.972491
H9  H0.099-  0.407883  0.578412  0.073393
C9  C0.063-  0.373098  0.765396  0.871645
C10  C0.264+  0.437563  0.745507  0.805533
H10  H0.093-  0.387223  0.809879  0.916841
H11  H0.007+  0.257672  0.627588  0.875759
H12  H0.075-  0.314749  0.782076  0.848181
H13  H0.014-  0.419335  0.699135  0.763648
H14  H0.040-  0.495111  0.727146  0.830336
N6  N0.877-  0.444849  0.812578  0.753729
H15  H0.288+  0.475717  0.816532  0.702519
H16  H0.402+  0.455522  0.866989  0.775193
Zn2  Zn1.050+  0.241500  0.499994  0.000017
C11  C0.356+  0.376788  0.319910  0.087715
C12  C0.394+  0.309861  0.374763  0.085548
N7  N0.878-  0.324216  0.422169  0.024621
C13  C0.803+  0.391063  0.400849  0.986774
N8  N0.899-  0.423751  0.340940  0.027495
H17  H0.098-  0.407856  0.421558  0.926688
C14  C0.063-  0.373086  0.234599  0.128338
C15  C0.264+  0.437544  0.254492  0.194471
H18  H0.093-  0.387200  0.190141  0.083163
H19  H0.007+  0.257664  0.372405  0.124208
H20  H0.075-  0.314757  0.217957  0.151819
H21  H0.014-  0.419331  0.300852  0.236347
H22  H0.040-  0.495086  0.272873  0.169665
N9  N0.878-  0.444849  0.187383  0.246227
H23  H0.288+  0.475711  0.183465  0.297459
H24  H0.402+  0.455540  0.133055  0.224695
C16  C0.356+  0.623211  0.680081  0.087748
C17  C0.394+  0.690117  0.625236  0.085593
N10  N0.878-  0.675757  0.577896  0.024603
C18  C0.803+  0.608958  0.599206  0.986731
N11  N0.899-  0.576231  0.659125  0.027522
H25  H0.098-  0.592149  0.578469  0.926656
C19  C0.063-  0.626917  0.765425  0.128355
C20  C0.264+  0.562437  0.745516  0.194484
H26  H0.093-  0.612783  0.809861  0.083162
H27  H0.007+  0.742330  0.627592  0.124235
H28  H0.075-  0.685247  0.782058  0.151820
H29  H0.014-  0.580653  0.699144  0.236340
H30  H0.040-  0.504884  0.727165  0.169659
N12  N0.878-  0.555154  0.812619  0.246239
H31  H0.288+  0.524286  0.816526  0.297473
H32  H0.402+  0.544459  0.866944  0.224724
C21  C0.356+  0.912248  0.623238  0.319931
C22  C0.394+  0.914436  0.690147  0.374752
N13  N0.878-  0.975434  0.675790  0.422117
C23  C0.803+  0.013259  0.608973  0.400799
N14  N0.899-  0.972477  0.576231  0.340888
H33  H0.098-  0.073341  0.592166  0.421527
C24  C0.063-  0.871676  0.626944  0.234595
C25  C0.264+  0.805502  0.562475  0.254487
H34  H0.093-  0.916865  0.612832  0.190170
H35  H0.007+  0.875793  0.742337  0.372410
H36  H0.075-  0.848165  0.685257  0.217975
H37  H0.014-  0.763652  0.580670  0.300839
H38  H0.040-  0.830323  0.504961  0.272942
N15  N0.878-  0.753765  0.555136  0.187385
H39  H0.288+  0.702525  0.524288  0.183488
H40  H0.402+  0.775286  0.544401  0.133021
Zn3  Zn1.051+  0.000005  0.758505  0.500010
C26  C0.356+  0.912280  0.376780  0.680078
C27  C0.394+  0.914448  0.309884  0.625236
N16  N0.878-  0.975390  0.324266  0.577870
C28  C0.804+  0.013196  0.391034  0.599196
N17  N0.899-  0.972501  0.423732  0.659072
H41  H0.098-  0.073351  0.407864  0.578446
C29  C0.063-  0.871654  0.373081  0.765401
C30  C0.264+  0.805523  0.437552  0.745508
H42  H0.093-  0.916845  0.387201  0.809844
H43  H0.007+  0.875788  0.257681  0.627586
H44  H0.075-  0.848178  0.314749  0.782050
H45  H0.014-  0.763650  0.419335  0.699147
H46  H0.040-  0.830337  0.495096  0.727136
N18  N0.878-  0.753771  0.444850  0.812619
H47  H0.288+  0.702540  0.475712  0.816535
H48  H0.402+  0.775303  0.455540  0.866950
Zn4  Zn1.050+  0.999996  0.241508  0.500011
C31  C0.356+  0.087735  0.376761  0.319901
C32  C0.393+  0.085575  0.309865  0.374743
N19  N0.878-  0.024586  0.324231  0.422128
C33  C0.802+  0.986733  0.391043  0.400817
N20  N0.899-  0.027536  0.423789  0.340881
H49  H0.098-  0.926670  0.407857  0.421542
C34  C0.063-  0.128355  0.373067  0.234581
C35  C0.264+  0.194487  0.437574  0.254487
H50  H0.093-  0.083168  0.387219  0.190148
H51  H0.007+  0.124204  0.257676  0.372410
H52  H0.075-  0.151819  0.314758  0.217937
H53  H0.014-  0.236347  0.419340  0.300858
H54  H0.040-  0.169662  0.495104  0.272843
N21  N0.878-  0.246233  0.444855  0.187389
H55  H0.288+  0.297470  0.475712  0.183468
H56  H0.402+  0.224720  0.455528  0.133043
C36  C0.355+  0.087730  0.623261  0.680092
C37  C0.393+  0.085565  0.690109  0.625293
N22  N0.878-  0.024586  0.675782  0.577837
C38  C0.803+  0.986780  0.608958  0.599181
N23  N0.899-  0.027480  0.576211  0.659092
H57  H0.098-  0.926681  0.592155  0.578454
C39  C0.063-  0.128344  0.626907  0.765401
C40  C0.264+  0.194469  0.562441  0.745511
H58  H0.093-  0.083163  0.612780  0.809846
H59  H0.007+  0.124210  0.742330  0.627594
H60  H0.075-  0.151819  0.685240  0.782058
H61  H0.014-  0.236326  0.580635  0.699143
H62  H0.040-  0.169654  0.504867  0.727189
N24  N0.878-  0.246233  0.555144  0.812615
H63  H0.288+  0.297468  0.524286  0.816526
H64  H0.402+  0.224698  0.544443  0.866929
C41  C0.356+  0.319910  0.087736  0.376754
C42  C0.393+  0.374738  0.085583  0.309866
N25  N0.878-  0.422132  0.024579  0.324237
C43  C0.803+  0.400812  0.986746  0.391014
N26  N0.899-  0.340878  0.027509  0.423779
H65  H0.098-  0.421542  0.926659  0.407838
C44  C0.063-  0.234588  0.128344  0.373080
C45  C0.264+  0.254485  0.194479  0.437569
H66  H0.093-  0.190150  0.083166  0.387222
H67  H0.007+  0.372413  0.124218  0.257681
H68  H0.075-  0.217946  0.151817  0.314766
H69  H0.014-  0.300857  0.236329  0.419358
H70  H0.040-  0.272816  0.169654  0.495125
N27  N0.878-  0.187386  0.246230  0.444848
H71  H0.288+  0.183467  0.297462  0.475711
H72  H0.402+  0.133052  0.224704  0.455528
Zn5  Zn1.051+  0.500003  0.999997  0.241499
C46  C0.356+  0.680104  0.087741  0.623213
C47  C0.394+  0.625238  0.085570  0.690137
N28  N0.878-  0.577877  0.024593  0.675754
C48  C0.803+  0.599185  0.986740  0.608983
N29  N0.899-  0.659122  0.027522  0.576230
H73  H0.098-  0.578473  0.926662  0.592161
C49  C0.063-  0.765410  0.128352  0.626919
C50  C0.264+  0.745518  0.194481  0.562434
H74  H0.093-  0.809849  0.083161  0.612785
H75  H0.007+  0.627583  0.124219  0.742316
H76  H0.075-  0.782057  0.151819  0.685239
H77  H0.014-  0.699145  0.236337  0.580653
H78  H0.040-  0.727167  0.169657  0.504884
N30  N0.878-  0.812617  0.246238  0.555148
H79  H0.288+  0.816524  0.297473  0.524285
H80  H0.402+  0.866949  0.224716  0.544445
Zn6  Zn1.050+  0.500002  0.999998  0.758499
C51  C0.356+  0.319894  0.912268  0.623229
C52  C0.394+  0.374745  0.914447  0.690138
N31  N0.878-  0.422108  0.975417  0.675767
C53  C0.803+  0.400803  0.013251  0.608988
N32  N0.899-  0.340883  0.972479  0.576234
H81  H0.098-  0.421528  0.073328  0.592160
C54  C0.063-  0.234589  0.871652  0.626924
C55  C0.264+  0.254491  0.805525  0.562430
H82  H0.093-  0.190152  0.916835  0.612774
H83  H0.007+  0.372404  0.875790  0.742336
H84  H0.075-  0.217943  0.848182  0.685235
H85  H0.014-  0.300856  0.763667  0.580646
H86  H0.040-  0.272823  0.830344  0.504878
N33  N0.877-  0.187423  0.753733  0.555155
H87  H0.288+  0.183476  0.702530  0.524288
H88  H0.402+  0.133012  0.775191  0.544479
C56  C0.355+  0.680092  0.912292  0.376758
C57  C0.394+  0.625263  0.914445  0.309868
N34  N0.878-  0.577828  0.975391  0.324213
C58  C0.803+  0.599149  0.013220  0.391052
N35  N0.899-  0.659070  0.972515  0.423757
H89  H0.098-  0.578438  0.073311  0.407852
C59  C0.063-  0.765401  0.871649  0.373096
C60  C0.264+  0.745511  0.805536  0.437558
H90  H0.093-  0.809850  0.916836  0.387221
H91  H0.007+  0.627601  0.875797  0.257678
H92  H0.075-  0.782056  0.848182  0.314759
H93  H0.014-  0.699143  0.763670  0.419360
H94  H0.040-  0.727184  0.830345  0.495126
N36  N0.878-  0.812617  0.753768  0.444841
H95  H0.288+  0.816535  0.702544  0.475711
H96  H0.402+  0.866943  0.775310  0.455533
C61  C0.356+  0.123241  0.819899  0.412278
C62  C0.394+  0.190132  0.874733  0.414436
N37  N0.878-  0.175780  0.922149  0.475405
C63  C0.803+  0.108965  0.900838  0.513243
N38  N0.899-  0.076229  0.840898  0.472506
H97  H0.098-  0.092158  0.921550  0.573326
C64  C0.063-  0.126906  0.734597  0.371652
C65  C0.264+  0.062441  0.754488  0.305532
H98  H0.093-  0.112780  0.690147  0.416835
H99  H0.007+  0.242321  0.872405  0.375792
H100  H0.075-  0.185238  0.717945  0.348182
H101  H0.014-  0.080638  0.800856  0.263674
H102  H0.040-  0.004869  0.772809  0.330346
N39  N0.878-  0.055153  0.687384  0.253765
H103  H0.288+  0.024288  0.683470  0.202537
H104  H0.402+  0.044458  0.633055  0.275303
Zn7  Zn1.050+  0.258503  0.999995  0.500001
C66  C0.356+  0.876784  0.180085  0.412278
C67  C0.394+  0.809881  0.125242  0.414451
N40  N0.878-  0.824272  0.077897  0.475428
C68  C0.804+  0.891003  0.099204  0.513223
N41  N0.899-  0.923755  0.159096  0.472490
H105  H0.098-  0.907846  0.078456  0.573348
C69  C0.063-  0.873075  0.265401  0.371669
C70  C0.264+  0.937558  0.245503  0.305535
H106  H0.093-  0.887185  0.309833  0.416854
H107  H0.007+  0.757677  0.127587  0.375791
H108  H0.075-  0.814744  0.282031  0.348172
H109  H0.014-  0.919350  0.199141  0.263666
H110  H0.040-  0.995117  0.227169  0.330355
N42  N0.878-  0.944882  0.312594  0.253787
H111  H0.288+  0.975709  0.316531  0.202538
H112  H0.403+  0.955589  0.366931  0.275321
Zn8  Zn1.050+  0.741499  0.000009  0.499995
C71  C0.356+  0.876745  0.819906  0.587746
C72  C0.393+  0.809864  0.874726  0.585562
N43  N0.878-  0.824222  0.922114  0.524554
C73  C0.803+  0.891006  0.900800  0.486747
N44  N0.899-  0.923791  0.840878  0.527518
H113  H0.098-  0.907829  0.921520  0.426662
C74  C0.063-  0.873083  0.734600  0.628342
C75  C0.264+  0.937567  0.754494  0.694460
H114  H0.093-  0.887217  0.690153  0.583161
H115  H0.007+  0.757668  0.872409  0.624208
H116  H0.075-  0.814754  0.717950  0.651821
H117  H0.014-  0.919355  0.800855  0.736334
H118  H0.040-  0.995119  0.772823  0.669653
N45  N0.877-  0.944843  0.687422  0.746260
H119  H0.288+  0.975713  0.683476  0.797464
H120  H0.402+  0.955536  0.633014  0.724793
C76  C0.355+  0.123245  0.180092  0.587745
C77  C0.393+  0.190129  0.125272  0.585561
N46  N0.878-  0.175773  0.077884  0.524553
C78  C0.803+  0.108996  0.099196  0.486746
N47  N0.899-  0.076204  0.159122  0.527515
H121  H0.098-  0.092170  0.078476  0.426660
C79  C0.063-  0.126917  0.265399  0.628334
C80  C0.264+  0.062442  0.245503  0.694464
H122  H0.093-  0.112788  0.309861  0.583165
H123  H0.007+  0.242331  0.127593  0.624209
H124  H0.075-  0.185244  0.282040  0.651817
H125  H0.014-  0.080663  0.199149  0.736341
H126  H0.040-  0.004896  0.227154  0.669658
N48  N0.877-  0.055161  0.312572  0.746262
H127  H0.288+  0.024287  0.316524  0.797462
H128  H0.402+  0.044456  0.366989  0.724770
C81  C0.356+  0.412243  0.123234  0.819913
C82  C0.393+  0.414420  0.190092  0.874724
N49  N0.878-  0.475426  0.175724  0.922105
C83  C0.804+  0.513228  0.108997  0.900802
N50  N0.899-  0.472501  0.076222  0.840888
H129  H0.098-  0.573353  0.092145  0.921542
C84  C0.063-  0.371664  0.126915  0.734592
C85  C0.264+  0.305527  0.062429  0.754488
H130  H0.093-  0.416837  0.112788  0.690144
H131  H0.007+  0.375767  0.242342  0.872410
H132  H0.075-  0.348180  0.185244  0.717948
H133  H0.014-  0.263664  0.080642  0.800856
H134  H0.040-  0.330343  0.004881  0.772822
N51  N0.878-  0.253756  0.055156  0.687401
H135  H0.288+  0.202539  0.024287  0.683469
H136  H0.402+  0.275281  0.044474  0.633024
Zn9  Zn1.050+  0.499992  0.258498  0.000001
C86  C0.356+  0.412273  0.876777  0.180104
C87  C0.394+  0.414432  0.809868  0.125250
N52  N0.878-  0.475416  0.824241  0.077890
C88  C0.803+  0.513263  0.891013  0.099187
N53  N0.899-  0.472478  0.923782  0.159128
H137  H0.098-  0.573328  0.907842  0.078463
C89  C0.063-  0.371645  0.873081  0.265413
C90  C0.264+  0.305520  0.937570  0.245516
H138  H0.093-  0.416837  0.887221  0.309846
H139  H0.007+  0.375788  0.757682  0.127596
H140  H0.075-  0.348184  0.814762  0.282058
H141  H0.014-  0.263661  0.919344  0.199141
H142  H0.040-  0.330341  0.995112  0.227163
N54  N0.878-  0.253766  0.944850  0.312618
H143  H0.288+  0.202525  0.975715  0.316524
H144  H0.403+  0.275276  0.955540  0.366943
Zn10  Zn1.050+  0.499987  0.741502  0.000003
C91  C0.355+  0.587734  0.876754  0.819915
C92  C0.393+  0.585577  0.809881  0.874733
N55  N0.878-  0.524601  0.824230  0.922175
C93  C0.803+  0.486763  0.891039  0.900838
N56  N0.899-  0.527492  0.923781  0.840897
H145  H0.098-  0.426674  0.907840  0.921544
C94  C0.063-  0.628349  0.873089  0.734597
C95  C0.264+  0.694467  0.937564  0.754493
H146  H0.093-  0.583162  0.887215  0.690151
H147  H0.007+  0.624219  0.757693  0.872420
H148  H0.075-  0.651817  0.814754  0.717947
H149  H0.014-  0.736348  0.919332  0.800857
H150  H0.040-  0.669660  0.995098  0.772855
N57  N0.878-  0.746243  0.944848  0.687403
H151  H0.288+  0.797463  0.975715  0.683470
H152  H0.402+  0.724719  0.955528  0.633024
C96  C0.355+  0.587749  0.123258  0.180078
C97  C0.393+  0.585588  0.190080  0.125267
N58  N0.878-  0.524582  0.175745  0.077881
C98  C0.804+  0.486782  0.108988  0.099220
N59  N0.899-  0.527493  0.076209  0.159119
H153  H0.098-  0.426662  0.092157  0.078471
C99  C0.063-  0.628351  0.126913  0.265409
C100  C0.264+  0.694465  0.062432  0.245503
H154  H0.093-  0.583161  0.112772  0.309854
H155  H0.007+  0.624229  0.242322  0.127586
H156  H0.075-  0.651819  0.185245  0.282062
H157  H0.014-  0.736332  0.080637  0.199142
H158  H0.040-  0.669656  0.004870  0.227185
N60  N0.877-  0.746291  0.055163  0.312552
H159  H0.288+  0.797474  0.024287  0.316523
H160  H0.401+  0.724853  0.044465  0.367003
C101  C0.355+  0.819936  0.587750  0.876750
C102  C0.393+  0.874723  0.585582  0.809920
N61  N0.878-  0.922119  0.524574  0.824256
C103  C0.804+  0.900774  0.486783  0.891015
N62  N0.899-  0.840883  0.527484  0.923816
H161  H0.098-  0.921526  0.426660  0.907842
C104  C0.063-  0.734597  0.628346  0.873080
C105  C0.264+  0.754498  0.694479  0.937554
H162  H0.093-  0.690167  0.583146  0.887201
H163  H0.007+  0.872417  0.624231  0.757676
H164  H0.075-  0.717951  0.651823  0.814741
H165  H0.014-  0.800851  0.736350  0.919337
H166  H0.040-  0.772875  0.669666  0.995087
N63  N0.878-  0.687395  0.746235  0.944847
H167  H0.288+  0.683467  0.797457  0.975713
H168  H0.402+  0.633035  0.724687  0.955545
Zn11  Zn1.050+  0.999992  0.499988  0.741495
C106  C0.356+  0.180086  0.587745  0.123231
C107  C0.394+  0.125259  0.585575  0.190116
N64  N0.878-  0.077880  0.524581  0.175755
C108  C0.803+  0.099197  0.486755  0.108987
N65  N0.899-  0.159121  0.527506  0.076218
H169  H0.098-  0.078471  0.426658  0.092168
C109  C0.063-  0.265406  0.628333  0.126929
C110  C0.264+  0.245503  0.694489  0.062463
H170  H0.093-  0.309846  0.583157  0.112810
H171  H0.007+  0.127584  0.624226  0.242323
H172  H0.075-  0.282045  0.651821  0.185242
H173  H0.014-  0.199151  0.736345  0.080672
H174  H0.041-  0.227076  0.669677  0.004943
N66  N0.877-  0.312583  0.746262  0.055148
H175  H0.288+  0.316517  0.797472  0.024284
H176  H0.402+  0.366993  0.724796  0.044446
Zn12  Zn1.050+  0.000030  0.500029  0.258499
C111  C0.356+  0.819996  0.412290  0.123213
C112  C0.394+  0.874827  0.414319  0.190068
N67  N0.877-  0.922102  0.475274  0.175808
C113  C0.803+  0.900605  0.513265  0.108766
N68  N0.900-  0.840994  0.472580  0.076307
H177  H0.099-  0.921600  0.573358  0.092118
C114  C0.064-  0.734487  0.371652  0.126949
C115  C0.264+  0.754490  0.305477  0.062393
H178  H0.093-  0.690091  0.416833  0.112781
H179  H0.007+  0.872365  0.375747  0.242325
H180  H0.075-  0.717963  0.348200  0.185227
H181  H0.014-  0.800868  0.263655  0.080662
H182  H0.040-  0.772857  0.330332  0.004899
N69  N0.878-  0.687421  0.253776  0.055130
H183  H0.288+  0.683466  0.202539  0.024292
H184  H0.402+  0.633034  0.275290  0.044468
C116  C0.356+  0.180095  0.412268  0.876751
C117  C0.393+  0.125268  0.414433  0.809860
N70  N0.878-  0.077876  0.475434  0.824219
C118  C0.803+  0.099193  0.513267  0.891020
N71  N0.899-  0.159118  0.472482  0.923786
H185  H0.098-  0.078462  0.573335  0.907840
C119  C0.063-  0.265416  0.371663  0.873075
C120  C0.264+  0.245497  0.305538  0.937577
H186  H0.093-  0.309848  0.416836  0.887220
H187  H0.007+  0.127597  0.375797  0.757668
H188  H0.075-  0.282046  0.348181  0.814760
H189  H0.014-  0.199145  0.263667  0.919354
H190  H0.040-  0.227177  0.330347  0.995119
N72  N0.877-  0.312534  0.253712  0.944845
H191  H0.288+  0.316520  0.202534  0.975714
H192  H0.401+  0.367025  0.275158  0.955539
