data_BARECUSSZ13RA_publ

_pd_block_id
  2016-09-02T16:05|BARECUSSZ13RA|bahar|

_audit_creation_method  "from EXP file using GSAS2CIF"
_audit_creation_date                   2016-09-02T16:05
_audit_author_name                     bahar
_audit_update_record
; 2016-09-02T16:05  Initial CIF as created by GSAS2CIF
;

#=============================================================================
# this information describes the project, paper etc. for the CIF             #
# Acta Cryst. Section C papers and editorial correspondence is generated     #
# from the information in this section                                       #
#                                                                            #
#   (from)   CIF submission form for Rietveld refinements (Acta Cryst. C)    #
#                                                 Version 14 December 1998   #
#=============================================================================
# 1. SUBMISSION DETAILS

_publ_contact_author_name            ?   # Name of author for correspondence
_publ_contact_author_address             # Address of author for correspondence
; ?
;
_publ_contact_author_email           ?
_publ_contact_author_fax             ?
_publ_contact_author_phone           ?

_publ_contact_letter
; ?
;

_publ_requested_journal              ?
_publ_requested_coeditor_name        ?
_publ_requested_category             ?   # Acta C: one of CI/CM/CO/FI/FM/FO

#==============================================================================

# 2. PROCESSING SUMMARY (IUCr Office Use Only)

_journal_data_validation_number      ?

_journal_date_recd_electronic        ?
_journal_date_to_coeditor            ?
_journal_date_from_coeditor          ?
_journal_date_accepted               ?
_journal_date_printers_first         ?
_journal_date_printers_final         ?
_journal_date_proofs_out             ?
_journal_date_proofs_in              ?
_journal_coeditor_name               ?
_journal_coeditor_code               ?
_journal_coeditor_notes
; ?
;
_journal_techeditor_code             ?
_journal_techeditor_notes
; ?
;
_journal_coden_ASTM                  ?
_journal_name_full                   ?
_journal_year                        ?
_journal_volume                      ?
_journal_issue                       ?
_journal_page_first                  ?
_journal_page_last                   ?
_journal_paper_category              ?
_journal_suppl_publ_number           ?
_journal_suppl_publ_pages            ?

#==============================================================================

# 3. TITLE AND AUTHOR LIST

_publ_section_title
; ?
;
_publ_section_title_footnote
; ?
;

# The loop structure below should contain the names and addresses of all
# authors, in the required order of publication. Repeat as necessary.

loop_
	_publ_author_name
        _publ_author_footnote
	_publ_author_address
 ?                                   #<--'Last name, first name'
; ?
;
; ?
;

#==============================================================================

# 4. TEXT

_publ_section_synopsis
;  ?
;
_publ_section_abstract
; ?
;
_publ_section_comment
; ?
;
_publ_section_exptl_prep      # Details of the preparation of the sample(s)
                              # should be given here.
; ?
;
_publ_section_exptl_refinement
; ?
;
_publ_section_references
; ?
;
_publ_section_figure_captions
; ?
;
_publ_section_acknowledgements
; ?
;

#=============================================================================
# 5. OVERALL REFINEMENT & COMPUTING DETAILS

_refine_special_details
; ?
;
_pd_proc_ls_special_details
; ?
;

# The following items are used to identify the programs used.
_computing_molecular_graphics     ?
_computing_publication_material   ?

_refine_ls_weighting_scheme       ?
_refine_ls_weighting_details      ?
_refine_ls_hydrogen_treatment     ?
_refine_ls_extinction_method      ?
_refine_ls_extinction_coef        ?
_refine_ls_number_constraints     ?

_refine_ls_restrained_S_all       ?
_refine_ls_restrained_S_obs       ?

#==============================================================================
# 6. SAMPLE PREPARATION DATA

# (In the unusual case where multiple samples are used in a single
#  Rietveld study, this information should be moved into the phase
#  blocks)

# The following three fields describe the preparation of the material.
# The cooling rate is in K/min.  The pressure at which the sample was
# prepared is in kPa.  The temperature of preparation is in K.

_pd_prep_cool_rate                ?
_pd_prep_pressure                 ?
_pd_prep_temperature              ?

_pd_char_colour                   ?       # use ICDD colour descriptions
_refine_ls_shift/su_max                4.69
_refine_ls_shift/su_mean               0.27
_computing_structure_refinement        GSAS
_refine_ls_number_parameters           36
_refine_ls_goodness_of_fit_all         1.00
_refine_ls_number_restraints           9
_refine_ls_matrix_type                 full
#==============================================================================
# 7. CHEMICAL, STRUCTURAL AND CRYSTAL DATA

_pd_char_particle_morphology      ?

_chemical_name_systematic
; ?
;
_chemical_name_common             ?
_chemical_formula_moiety          ?
_chemical_formula_structural      ?
_chemical_formula_analytical      ?
_chemical_melting_point           ?
_chemical_compound_source         ?       # for minerals and
                                          # natural products
_symmetry_space_group_name_Hall   ?

_exptl_crystal_F_000               ?
_exptl_crystal_density_diffrn      ?
_exptl_crystal_density_meas        ?
_exptl_crystal_density_method      ?

_cell_measurement_temperature     ?

_cell_special_details
; ?
;

_geom_special_details             ?

# The following item identifies the program(s) used (if appropriate).
_computing_structure_solution     ?

#==============================================================================

# 8. Phase information from GSAS

_pd_phase_name
    "from C:/Users/mac2/Documents/Practice/GSAS/CuSSZ13/CUSSZ13.EXP"
_cell_length_a                         13.6055(5)
_cell_length_b                         13.6055
_cell_length_c                         15.0169(9)
_cell_angle_alpha                      90.0
_cell_angle_beta                       90.0
_cell_angle_gamma                      120.0
_cell_volume                           2407.34(15)
_symmetry_cell_setting                 trigonal
_symmetry_space_group_name_H-M         "R -3 m"
loop_ _symmetry_equiv_pos_site_id _symmetry_equiv_pos_as_xyz
       1 +x,+y,+z 
       2 -y,x-y,+z 
       3 y-x,-x,+z 
       4 y-x,+y,+z 
       5 -y,-x,+z 
       6 +x,x-y,+z 
      -1 -x,-y,-z 
      -2 +y,y-x,-z 
      -3 x-y,+x,-z 
      -4 x-y,-y,-z 
      -5 +y,+x,-z 
      -6 -x,y-x,-z 
     101 +x+1/3,+y+2/3,+z+2/3 
     102 -y+1/3,x-y+2/3,+z+2/3 
     103 y-x+1/3,-x+2/3,+z+2/3 
     104 y-x+1/3,+y+2/3,+z+2/3 
     105 -y+1/3,-x+2/3,+z+2/3 
     106 +x+1/3,x-y+2/3,+z+2/3 
    -101 -x+2/3,-y+1/3,-z+1/3 
    -102 +y+2/3,y-x+1/3,-z+1/3 
    -103 x-y+2/3,+x+1/3,-z+1/3 
    -104 x-y+2/3,-y+1/3,-z+1/3 
    -105 +y+2/3,+x+1/3,-z+1/3 
    -106 -x+2/3,y-x+1/3,-z+1/3 
     201 +x+2/3,+y+1/3,+z+1/3 
     202 -y+2/3,x-y+1/3,+z+1/3 
     203 y-x+2/3,-x+1/3,+z+1/3 
     204 y-x+2/3,+y+1/3,+z+1/3 
     205 -y+2/3,-x+1/3,+z+1/3 
     206 +x+2/3,x-y+1/3,+z+1/3 
    -201 -x+1/3,-y+2/3,-z+2/3 
    -202 +y+1/3,y-x+2/3,-z+2/3 
    -203 x-y+1/3,+x+2/3,-z+2/3 
    -204 x-y+1/3,-y+2/3,-z+2/3 
    -205 +y+1/3,+x+2/3,-z+2/3 
    -206 -x+1/3,y-x+2/3,-z+2/3 

# ATOMIC COORDINATES AND DISPLACEMENT PARAMETERS


loop_
      _atom_site_type_symbol
      _atom_site_label
      _atom_site_fract_x
      _atom_site_fract_y
      _atom_site_fract_z
      _atom_site_occupancy
      _atom_site_thermal_displace_type
      _atom_site_U_iso_or_equiv
      _atom_site_symmetry_multiplicity
Si
Si     -0.00019(35)  0.22705(31)  0.10130(27)  0.8596     Uiso   0.0077(12)   36
Al
Al     -0.00019(35)  0.22705(31)  0.10130(27)  0.1404     Uiso   0.0077(12)   36
O 
O1      0.90716(24)  0.09274(24)  0.1141(5)    1.0        Uani   0.05081      18
O 
O2      0.9685(4)    0.3019(4)    0.1667       1.0        Uani   0.02892      18
O 
O3      0.12247(24)  0.2448(5)    0.1278(4)    1.0        Uani   0.03328      18
O 
O4      0.0          0.2650(4)    0.0          1.0        Uani   0.03319      18
Cu
Cu      0.0          0.0          0.1271(22)   0.3        Uani   0.05789       6
Cu
Cu2     0.266(7)     0.038(8)     0.603(5)     0.055      Uiso   0.19(5)      36

loop_ _atom_site_aniso_label
      _atom_site_aniso_U_11
      _atom_site_aniso_U_12
      _atom_site_aniso_U_13
      _atom_site_aniso_U_22
      _atom_site_aniso_U_23
      _atom_site_aniso_U_33
O1      0.034(4)    0.011(4)   -0.0150(24)  0.034(4)    0.0150(24)  0.075(7)  
O2      0.038(4)    0.028(4)    0.0035(17)  0.038(4)   -0.0035(17)  0.024(4)  
O3      0.0146(30)  0.0225(25) -0.0098(22)  0.045(5)   -0.020(4)    0.050(5)  
O4      0.052(5)    0.0262(25)  0.006(4)    0.0270(28)  0.0029(21)  0.029(4)  
Cu      0.005(11)   0.003(5)    0.0         0.005(11)   0.0         0.16(4)   
 
# If you change Z, be sure to change all 3 of the following
_chemical_formula_sum                  "Al0.07 Cu0.05 O Si0.43"
_chemical_formula_weight               33.30
_cell_formula_units_Z                  72

# MOLECULAR GEOMETRY

loop_
      _geom_bond_atom_site_label_1
      _geom_bond_atom_site_label_2
      _geom_bond_distance
      _geom_bond_site_symmetry_1
      _geom_bond_site_symmetry_2
      _geom_bond_publ_flag
  Si        Al                3.094(8)  .      4_555  N
  Si        Al                3.087(8)  .      5_555  N
  Si        Al                3.042(8)  .     -6_555  N
  Si        O1                1.632(4)  .      1_455  N
  Si        O2                1.618(4)  .      1_455  N
  Si        O3                1.612(4)  .      1_555  N
  Si        O4                1.606(4)  .      1_555  N
  Si        Cu                3.115(6)  .      1_555  N
  Si        Cu2                3.26(6)  .    103_554  N
  Si        Cu2                2.62(7)  .   -106_444  N
  Si        Cu2               3.56(11)  .    201_454  N
  Al        Si                3.094(8)  .      4_555  N
  Al        Si                3.087(8)  .      5_555  N
  Al        Si                3.042(8)  .     -6_555  N
  Al        Al                3.094(8)  .      4_555  N
  Al        Al                3.087(8)  .      5_555  N
  Al        Al                3.042(8)  .     -6_555  N
  Al        Al                3.179(8)  .   -205_344  N
  Al        O1                1.632(4)  .      1_455  N
  Al        O2                1.618(4)  .      1_455  N
  Al        O3                1.612(4)  .      1_555  N
  Al        O4                1.606(4)  .      1_555  N
  Al        Cu                3.115(6)  .      1_555  N
  Al        Cu2                3.26(6)  .    103_554  N
  Al        Cu2                2.62(7)  .   -106_444  N
  Al        Cu2               3.56(11)  .    201_454  N
  O1        Si                1.632(4)  .      1_655  N
  O1        Si                1.630(4)  .      5_655  N
  O1        Al                1.632(4)  .      1_655  N
  O1        Al                1.630(4)  .      5_655  N
  O1        Cu                2.195(6)  .      1_655  N
  O2        Si                1.618(4)  .      1_655  N
  O2        Si                1.616(4)  .   -205_444  N
  O2        Al                1.618(4)  .      1_655  N
  O2        Al                1.616(4)  .   -205_444  N
  O2        Cu2              2.275(30)  .    103_654  N
  O2        Cu2              2.275(30)  .   -106_544  N
  O3        Si                1.612(4)  .      1_555  N
  O3        Si                1.611(4)  .      4_555  N
  O3        Al                1.612(4)  .      1_555  N
  O3        Al                1.611(4)  .      4_555  N
  O3        Cu                2.885(6)  .      1_555  N
  O3        Cu2                3.09(9)  .    103_554  N
  O3        Cu2                3.09(9)  .    105_554  N
  O3        Cu2                3.23(8)  .   -102_444  N
  O3        Cu2                3.23(8)  .   -106_444  N
  O4        Si                1.606(4)  .      1_555  N
  O4        Si                1.606(4)  .     -6_555  N
  O4        Al                1.606(4)  .      1_555  N
  O4        Al                1.606(4)  .     -6_555  N
  O4        Cu               4.080(16)  .      1_555  N
  O4        Cu               4.080(16)  .     -1_555  N
  O4        Cu2               2.28(10)  .   -106_444  N
  O4        Cu2               2.28(10)  .    201_454  N
  Cu        Si                3.115(6)  .      1_555  N
  Cu        Si                3.115(6)  .      2_555  N
  Cu        Si                3.115(6)  .      3_555  N
  Cu        Si                3.115(6)  .      4_555  N
  Cu        Si                3.115(6)  .      5_555  N
  Cu        Si                3.115(6)  .      6_555  N
  Cu        Al                3.115(6)  .      1_555  N
  Cu        Al                3.115(6)  .      2_555  N
  Cu        Al                3.115(6)  .      3_555  N
  Cu        Al                3.115(6)  .      4_555  N
  Cu        Al                3.115(6)  .      5_555  N
  Cu        Al                3.115(6)  .      6_555  N
  Cu        O1                2.195(6)  .      1_455  N
  Cu        O1                2.195(6)  .      2_545  N
  Cu        O1                2.195(6)  .      3_665  N
  Cu        O3                2.885(6)  .      1_555  N
  Cu        O3                2.885(6)  .      2_555  N
  Cu        O3                2.885(6)  .      3_555  N
  Cu        O4               4.080(16)  .      1_555  N
  Cu        O4               4.080(16)  .      2_555  N
  Cu        O4               4.080(16)  .      3_555  N
  Cu        O4               4.080(16)  .      4_555  N
  Cu        O4               4.080(16)  .      5_555  N
  Cu        O4               4.080(16)  .      6_555  N
  Cu        Cu                 3.82(7)  .     -1_555  N
  Cu2       Si                3.56(11)  .    101_545  N
  Cu2       Si                 2.62(7)  .   -106_434  N
  Cu2       Si                 3.26(6)  .    202_555  N
  Cu2       Al                3.56(11)  .    101_545  N
  Cu2       Al                 2.62(7)  .   -106_434  N
  Cu2       Al                 3.26(6)  .    202_555  N
  Cu2       O2               2.275(30)  .   -106_544  N
  Cu2       O3                 3.23(8)  .   -103_434  N
  Cu2       O3                 3.09(9)  .    202_555  N
  Cu2       O4                2.28(10)  .    101_545  N
  Cu2       Cu2               4.13(18)  .      5_555  N
  Cu2       Cu2               2.57(18)  .      6_555  N
  Cu2       Cu2               3.21(14)  .     -4_556  N
  Cu2       Cu2               3.59(16)  .   -201_445  N
  Cu2       Cu2               2.50(18)  .   -206_445  N

loop_
      _geom_angle_atom_site_label_1
      _geom_angle_atom_site_label_2
      _geom_angle_atom_site_label_3
      _geom_angle
      _geom_angle_site_symmetry_1
      _geom_angle_site_symmetry_2
      _geom_angle_site_symmetry_3
      _geom_angle_publ_flag
  O1        Si        O2                109.5(4)      1_455  .      1_455  N
  O1        Si        O3                107.5(4)      1_455  .      1_555  N
  O1        Si        O4                110.4(4)      1_455  .      1_555  N
  O2        Si        O3              109.55(30)      1_455  .      1_555  N
  O2        Si        O4              109.35(28)      1_455  .      1_555  N
  O3        Si        O4                110.5(4)      1_555  .      1_555  N
  O1        Al        O2                109.5(4)      1_455  .      1_455  N
  O1        Al        O3                107.5(4)      1_455  .      1_555  N
  O1        Al        O4                110.4(4)      1_455  .      1_555  N
  O1        Al        Cu2              155.6(19)      1_455  .   -106_444  N
  O2        Al        O3              109.55(30)      1_455  .      1_555  N
  O2        Al        O4              109.35(28)      1_455  .      1_555  N
  O2        Al        Cu2               59.6(19)      1_455  .   -106_444  N
  O3        Al        O4                110.5(4)      1_555  .      1_555  N
  O3        Al        Cu2               96.9(19)      1_555  .   -106_444  N
  O4        Al        Cu2               60.0(20)      1_555  .   -106_444  N
  Si        O1        Si                142.3(5)      1_655  .      5_655  N
  Si        O1        Al                     0.0      1_655  .      1_655  N
  Si        O1        Al                142.3(5)      1_655  .      5_655  N
  Si        O1        Al                142.3(5)      5_655  .      1_655  N
  Si        O1        Al                     0.0      5_655  .      5_655  N
  Al        O1        Al                142.3(5)      1_655  .      5_655  N
  Si        O2        Si                158.9(5)      1_655  .   -205_444  N
  Si        O2        Al                     0.0      1_655  .      1_655  N
  Si        O2        Al                158.9(5)      1_655  .   -205_444  N
  Si        O2        Al                158.9(5)   -205_444  .      1_655  N
  Si        O2        Al                     0.0   -205_444  .   -205_444  N
  Al        O2        Al                158.9(5)      1_655  .   -205_444  N
  Si        O3        Si                147.6(5)      1_555  .      4_555  N
  Si        O3        Al                     0.0      1_555  .      1_555  N
  Si        O3        Al                147.6(5)      1_555  .      4_555  N
  Si        O3        Al                147.6(5)      4_555  .      1_555  N
  Si        O3        Al                     0.0      4_555  .      4_555  N
  Al        O3        Al                147.6(5)      1_555  .      4_555  N
  Si        O4        Si                142.6(4)      1_555  .     -6_555  N
  Si        O4        Al                     0.0      1_555  .      1_555  N
  Si        O4        Al                142.6(4)      1_555  .     -6_555  N
  Si        O4        Al                142.6(4)     -6_555  .      1_555  N
  Si        O4        Al                     0.0     -6_555  .     -6_555  N
  Al        O4        Al                142.6(4)      1_555  .     -6_555  N
  Al        Cu2       Cu2               88.2(23)   -106_434  .   -206_445  N

# Powder diffraction data for histogram  5
#==============================================================================
# 9. INSTRUMENT CHARACTERIZATION

_exptl_special_details
; ?
;

# if regions of the data are excluded, the reason(s) are supplied here:
_pd_proc_info_excluded_regions
; ?
;

# The following item is used to identify the equipment used to record
# the powder pattern when the diffractogram was measured at a laboratory
# other than the authors' home institution, e.g. when neutron or synchrotron
# radiation is used.

_pd_instr_location
; ?
;
_pd_calibration_special_details           # description of the method used
                                          # to calibrate the instrument
; ?
;

_diffrn_ambient_temperature       ?
_diffrn_source                    ?
_diffrn_source_target             ?
_diffrn_source_type               ?
_diffrn_measurement_device_type   ?
_diffrn_detector                  ?
_diffrn_detector_type             ?       # make or model of detector

_pd_meas_scan_method              ?       # options are 'step', 'cont',
                                          # 'tof', 'fixed' or
                                          # 'disp' (= dispersive)
_pd_meas_special_details
;  ?
;

# The following two items identify the program(s) used (if appropriate).
_computing_data_collection        ?
_computing_data_reduction         ?

# Describe any processing performed on the data, prior to refinement.
# For example: a manual Lp correction or a precomputed absorption correction
_pd_proc_info_data_reduction      ?

# The following item is used for angular dispersive measurements only.

_diffrn_radiation_monochromator   ?

# The following items are used to define the size of the instrument.
# Not all distances are appropriate for all instrument types.

_pd_instr_dist_src/mono           ?
_pd_instr_dist_mono/spec          ?
_pd_instr_dist_src/spec           ?
_pd_instr_dist_spec/anal          ?
_pd_instr_dist_anal/detc          ?
_pd_instr_dist_spec/detc          ?

# 10. Specimen size and mounting information

# The next three fields give the specimen dimensions in mm.  The equatorial
# plane contains the incident and diffracted beam.

_pd_spec_size_axial               ?       # perpendicular to
                                          # equatorial plane

_pd_spec_size_equat               ?       # parallel to
                                          # scattering vector
                                          # in transmission

_pd_spec_size_thick               ?       # parallel to
                                          # scattering vector
                                          # in reflection

_pd_spec_mounting                         # This field should be
                                          # used to give details of the
                                          # container.
; ?
;

_pd_spec_mount_mode               ?       # options are 'reflection'
                                          # or 'transmission'

_pd_spec_shape                    ?       # options are 'cylinder'
                                          # 'flat_sheet' or 'irregular'


loop_ _atom_type_symbol
      _atom_type_number_in_cell
      _atom_type_scat_length_neutron
      _atom_type_scat_source
  Si        30.946   0.4149
  International_Tables_Vol_C
  Al         5.054   0.3449
  International_Tables_Vol_C
  O         72.0   0.5803
  International_Tables_Vol_C
  Cu+1       1.8   0.7718
  International_Tables_Vol_C
  Cu         1.98   0.7718
  International_Tables_Vol_C
_diffrn_radiation_probe                neutron
_diffrn_radiation_wavelength           2.078
_pd_proc_ls_prof_R_factor              0.0458
_pd_proc_ls_prof_wR_factor             0.0557
_pd_proc_ls_prof_wR_expected           0.0562
_refine_ls_R_Fsqd_factor               0.06874

_pd_proc_ls_background_function
;   GSAS Background function number 1 with 10 terms.
 Shifted Chebyshev function of 1st kind
      1:    254.197     2:   -38.9281     3:    41.6959     4:   -22.4126    
      5:    15.4266     6:   -10.8621     7:    1.50962     8:    2.21285    
      9:   -1.60077    10:   -1.53739    
;

_exptl_absorpt_process_details
;   GSAS Absorption/surface roughness correction: function number 0
 No correction is applied.
;
_exptl_absorpt_correction_T_min        1.00000
_exptl_absorpt_correction_T_max        1.00000
# Extinction correction
_gsas_exptl_extinct_corr_T_min         1.00000
_gsas_exptl_extinct_corr_T_max         1.00000

_pd_proc_ls_profile_function
;
 CW Profile function number 3 with  19 terms
 Pseudovoigt profile coefficients as parameterized in
 P. Thompson, D.E. Cox & J.B. Hastings (1987). J. Appl. Cryst.,20,79-83.
 Asymmetry correction of L.W. Finger, D.E. Cox & A. P. Jephcoat (1994).
 J. Appl. Cryst.,27,892-900.
 #1(GU)   =  702.790 #2(GV)   =   -0.100 #3(GW)   =   29.209
 #4(GP)   =   74.977 #5(LX)   =    1.264 #6(LY)   =    9.501
 #7(S/L)  =   0.0339 #8(H/L)  =   0.0341
 #9(trns) =     0.00 #10(shft)=   0.0000
 #11(stec)=     0.00 #12(ptec)=     0.00 #13(sfec)=     0.00
 #14(L11) =    0.000 #15(L22) =    0.000 #16(L33) =    0.000
 #17(L12) =    0.000 #18(L13) =    0.000 #19(L23) =    0.000
 Peak tails are ignored  where the intensity is below 0.0008 times the peak
   Aniso. broadening axis   0.0   0.0   1.0
;
_pd_proc_ls_peak_cutoff 0.00080
_pd_proc_info_datetime                 2016-09-02T16:05:06
_pd_calc_method                        "Rietveld Refinement"

#---- raw/calc data loop -----
_pd_meas_2theta_range_min              1.5
_pd_meas_2theta_range_max              166.25
_pd_meas_2theta_range_inc              0.05
_pd_proc_2theta_range_min              1.4942
_pd_proc_2theta_range_max              166.2442
_pd_proc_2theta_range_inc              0.05

loop_
      _pd_meas_intensity_total
      _pd_proc_ls_weight
      _pd_proc_intensity_bkg_calc
      _pd_calc_intensity_total
   2950(110)    0.0         469.    .
   2770(110)    0.0         468.    .
   2660(110)    0.0         467.    .
   2390(100)    0.0         466.    .
   2191(98)     0.0         465.    .
   1904(91)     0.0         464.    .
   1705(86)     0.0         463.    .
   1535(81)     0.0         462.    .
   1580(83)     0.0         461.    .
   1535(81)     0.0         460.    .
   1263(73)     0.0         460.    .
   1258(73)     0.0         459.    .
   1204(72)     0.0         458.    .
   1184(71)     0.0         457.    .
   1192(71)     0.0         456.    .
   1049(67)     0.0         455.    .
   1121(69)     0.0         454.    .
   1043(66)     0.0         453.    .
   1062(67)     0.0         452.    .
   1099(68)     0.0         451.    .
   1108(69)     0.0         451.    .
   1093(68)     0.0         450.    .
   928(62)      0.0         449.    .
   982(64)      0.0         448.    .
   900(61)      0.0         447.    .
   771(56)      0.0         446.    .
   881(61)      0.0         445.    .
   990(65)      0.0         445.    .
   919(62)      0.0         444.    .
   891(61)      0.0         443.    .
   904(61)      0.0         442.    .
   865(60)      0.0         441.    .
   775(57)      0.0         440.    .
   741(55)      0.0         440.    .
   657(52)      0.0         439.    .
   676(52)      0.0         438.    .
   800(58)      0.0         437.    .
   798(57)      0.0         436.    .
   622(50)      0.0         435.    .
   710(54)      0.0         435.    .
   654(52)      0.0         434.    .
   762(56)      0.0         433.    .
   679(53)      0.0         432.    .
   666(52)      0.0         431.    .
   627(50)      0.0         431.    .
   582(48)      0.0         430.    .
   658(52)      0.0         429.    .
   606(49)      0.0         428.    .
   626(50)      0.0         427.    .
   589(49)      0.0         427.    .
   590(49)      0.0         426.    .
   564(47)      0.0         425.    .
   608(49)      0.0         424.    .
   613(50)      0.0         423.    .
   580(48)      0.0         423.    .
   580(48)      0.0         422.    .
   566(48)      0.0         421.    .
   544(46)      0.0         420.    .
   562(47)      0.0         420.    .
   508(45)      0.0         419.    .
   532(46)      0.0         418.    .
   568(48)      0.0         417.    .
   530(46)      0.0         417.    .
   518(45)      0.0         416.    .
   552(47)      0.0         415.    .
   452(42)      0.0         414.    .
   458(42)      0.0         414.    .
   490(44)      0.0         413.    .
   476(43)      0.0         412.    .
   468(43)      0.0         411.    .
   488(44)      0.0         411.    .
   519(45)      0.0         410.    .
   488(44)      0.0         409.    .
   460(42)      0.0         408.    .
   528(46)      0.0         408.    .
   483(43)      0.0         407.    .
   469(43)      0.0         406.    .
   532(46)      0.0         406.    .
   556(47)      0.0         405.    .
   495(44)      0.0         404.    .
   424(40)      0.0         403.    .
   509(45)      0.0         403.    .
   462(42)      0.0         402.    .
   432(41)      0.0         401.    .
   429(41)      0.0         401.    .
   519(45)      0.0         400.    .
   466(43)      0.0         399.    .
   495(44)      0.0         399.    .
   418(40)      0.0         398.    .
   424(40)      0.0         397.    .
   384(38)      0.0         397.    .
   453(42)      0.0         396.    .
   476(43)      0.0         395.    .
   478(43)      0.0         395.    .
   405(39)      0.0         394.    .
   437(41)      0.0         393.    .
   518(45)      0.0         393.    .
   487(44)      0.0         392.    .
   460(42)      0.0         391.    .
   495(44)      0.0         391.    .
   459(29)      0.0         389.9   .
   502(31)      0.0         389.2   .
   507(31)      0.0         388.6   .
   394(27)      0.0         387.9   .
   437(28)      0.0         387.2   .
   398(27)      0.0         386.6   .
   439(28)      0.0         386.0   .
   423(28)      0.0         385.3   .
   420(28)      0.0         384.7   .
   407(27)      0.0         384.0   .
   439(28)      0.0         383.4   .
   418(28)      0.001276    382.8   382.8
   376(26)      0.001479    382.1   382.1
   448(29)      0.001189    381.5   381.5
   383(26)      0.001479    380.9   380.9
   408(27)      0.001372    380.2   380.2
   389(26)      0.001479    379.6   379.6
   398(27)      0.001372    379.0   379.0
   404(27)      0.001372    378.4   378.4
   400(27)      0.001372    377.7   377.7
   377(26)      0.001479    377.1   377.1
   399(27)      0.001372    376.5   376.5
   364(25)      0.001600    375.9   375.9
   356(25)      0.001600    375.3   375.3
   400(27)      0.001372    374.7   374.7
   358(25)      0.001600    374.1   374.1
   392(27)      0.001372    373.5   373.5
   379(26)      0.001479    372.9   372.9
   426(28)      0.001276    372.3   372.3
   345(25)      0.001600    371.7   371.7
   384(26)      0.001479    371.1   371.1
   335(24)      0.001736    370.5   370.5
   342(24)      0.001736    369.9   369.9
   384(26)      0.001479    369.3   369.3
   390(26)      0.001479    368.7   368.7
   399(27)      0.001372    368.1   368.1
   343(24)      0.001736    367.5   367.5
   342(24)      0.001736    366.9   366.9
   380(26)      0.001479    366.4   366.4
   316(23)      0.001890    365.8   365.8
   352(25)      0.001600    365.2   365.2
   323(24)      0.001736    364.6   364.6
   328(24)      0.001736    364.1   364.1
   373(26)      0.001479    363.5   363.5
   392(27)      0.001372    362.9   362.9
   410(27)      0.001372    362.3   362.3
   385(26)      0.001479    361.8   361.8
   303(23)      0.001890    361.2   361.2
   323(24)      0.001736    360.7   360.7
   338(24)      0.001736    360.1   360.1
   369(26)      0.001479    359.5   359.5
   355(25)      0.001600    359.0   359.0
   374(26)      0.001479    358.4   358.4
   362(25)      0.001600    357.9   357.9
   361(25)      0.001600    357.3   357.3
   381(26)      0.001479    356.8   356.8
   359(25)      0.001600    356.2   356.2
   397(27)      0.001372    355.7   355.7
   365(25)      0.001600    355.1   355.1
   363(25)      0.001600    354.6   354.6
   333(24)      0.001736    354.0   354.0
   350(25)      0.001600    353.5   353.5
   333(24)      0.001736    353.0   353.0
   372(26)      0.001479    352.4   352.4
   345(25)      0.001600    351.9   351.9
   350(25)      0.001600    351.3   351.3
   349(25)      0.001600    350.8   350.8
   350(25)      0.001600    350.3   350.3
   354(25)      0.001600    349.8   349.8
   326(24)      0.001736    349.2   349.2
   404(27)      0.001372    348.7   348.7
   328(24)      0.001736    348.2   348.2
   317(23)      0.001890    347.7   347.7
   364(25)      0.001600    347.1   347.1
   335(24)      0.001736    346.6   346.6
   346(25)      0.001600    346.1   346.1
   362(25)      0.001600    345.6   345.6
   362(25)      0.001600    345.1   345.1
   314(23)      0.001890    344.6   344.6
   340(24)      0.001736    344.0   344.0
   319(23)      0.001890    343.5   343.5
   339(24)      0.001736    343.0   343.0
   350(25)      0.001600    342.5   342.5
   347(25)      0.001600    342.0   342.0
   338(24)      0.001736    341.5   341.5
   369(26)      0.001479    341.0   341.0
   354(25)      0.001600    340.5   340.5
   348(25)      0.001600    340.0   340.0
   349(25)      0.001600    339.5   339.5
   355(25)      0.001600    339.0   339.0
   336(24)      0.001736    338.5   338.5
   325(24)      0.001736    338.0   338.0
   330(24)      0.001736    337.6   337.6
   334(24)      0.001736    337.1   341.1
   365(25)      0.001600    336.6   340.9
   378(26)      0.001479    336.1   340.7
   353(35)      0.000816    335.6   340.5
   323(33)      0.000918    335.1   340.4
   329(33)      0.000918    334.6   340.3
   317(32)      0.000977    334.2   340.3
   356(25)      0.001600    333.7   340.3
   352(25)      0.001600    333.2   340.4
   378(26)      0.001479    332.7   340.6
   356(25)      0.001600    332.3   340.9
   376(26)      0.001479    331.8   341.2
   372(26)      0.001479    331.3   341.7
   356(25)      0.001600    330.9   342.4
   353(25)      0.001600    330.4   343.3
   373(26)      0.001479    329.9   344.5
   390(27)      0.001372    329.5   346.0
   396(27)      0.001372    329.0   348.4
   390(27)      0.001372    328.5   352.5
   391(27)      0.001372    328.1   360.7
   386(27)      0.001372    327.6   377.5
   416(28)      0.001276    327.2   410.4
   479(30)      0.001111    326.7   469.5
   563(33)      0.000918    326.2   564.8
   662(36)      0.000772    326.    705.
   826(41)      0.000595    325.    896.
   969(44)      0.000517    325.    1148.
   1344(53)     0.000356    324.    1477.
   1803(61)     0.0002687   324.    1916.
   2448(72)     0.0001929   324.    2514.
   3375(84)     0.0001417   323.    3312.
   4423(97)     0.0001063   323.    4282.
   5420(110)    0.0000857   322.    5245.
   6070(110)    0.0000769   322.    5871.
   5680(110)    0.0000826   321.    5818.
   4660(100)    0.0001000   321.    4993.
   3596(87)     0.0001321   320.    3692.
   2302(69)     0.0002100   320.    2386.
   1448(54)     0.0003429   320.    1403.
   866(42)      0.000567    319.    818.
   592(34)      0.000865    318.7   534.6
   466(30)      0.001111    318.3   419.2
   407(27)      0.001372    317.9   376.4
   377(26)      0.001479    317.4   359.5
   331(24)      0.001736    317.0   350.7
   350(25)      0.001600    316.6   344.8
   323(24)      0.001736    316.2   340.3
   328(24)      0.001736    315.7   336.6
   391(27)      0.001372    315.3   333.5
   303(23)      0.001890    314.9   330.9
   317(24)      0.001736    314.5   328.7
   315(24)      0.001736    314.1   326.8
   317(24)      0.001736    313.7   325.1
   314(23)      0.001890    313.2   323.5
   324(24)      0.001736    312.8   322.2
   336(24)      0.001736    312.4   321.0
   361(26)      0.001479    312.0   319.8
   325(24)      0.001736    311.6   318.8
   339(25)      0.001600    311.2   317.8
   324(24)      0.001736    310.8   316.9
   341(25)      0.001600    310.4   316.1
   313(23)      0.001890    310.0   315.3
   362(26)      0.001479    309.6   314.5
   310(23)      0.001890    309.2   313.8
   320(24)      0.001736    308.8   313.1
   308(23)      0.001890    308.4   312.4
   311(23)      0.001890    308.0   311.8
   333(24)      0.001736    307.6   307.6
   321(24)      0.001736    307.2   307.2
   321(24)      0.001736    306.8   306.8
   313(24)      0.001736    306.4   306.4
   304(23)      0.001890    306.0   306.0
   302(23)      0.001890    305.6   305.6
   318(24)      0.001736    305.2   305.2
   270(21)      0.002268    304.9   304.9
   304(23)      0.001890    304.5   304.5
   294(23)      0.001890    304.1   304.1
   321(24)      0.001736    303.7   303.7
   322(24)      0.001736    303.3   303.3
   306(23)      0.001890    302.9   302.9
   338(25)      0.001600    302.6   302.6
   338(25)      0.001600    302.2   302.2
   296(23)      0.001890    301.8   301.8
   308(23)      0.001890    301.4   301.4
   327(24)      0.001736    301.1   301.1
   292(23)      0.001890    300.7   300.7
   312(23)      0.001890    300.3   300.3
   310(23)      0.001890    299.9   299.9
   346(25)      0.001600    299.6   299.6
   313(23)      0.001890    299.2   299.2
   290(22)      0.002066    298.8   298.8
   310(23)      0.001890    298.5   298.5
   312(23)      0.001890    298.1   298.1
   315(24)      0.001736    297.7   297.7
   305(23)      0.001890    297.4   298.2
   245(20)      0.002500    297.0   297.9
   286(22)      0.002066    296.7   297.6
   317(24)      0.001736    296.3   297.3
   298(23)      0.001890    295.9   297.0
   295(23)      0.001890    295.6   296.7
   301(23)      0.001890    295.2   296.5
   289(22)      0.002066    294.9   296.2
   295(23)      0.001890    294.5   295.9
   313(34)      0.000865    294.2   295.7
   316(24)      0.001736    293.8   295.5
   300(23)      0.001890    293.5   295.3
   295(23)      0.001890    293.1   295.1
   286(22)      0.002066    292.8   295.0
   320(24)      0.001736    292.4   294.9
   314(24)      0.001736    292.1   294.8
   293(23)      0.001890    291.7   294.8
   297(23)      0.001890    291.4   294.9
   313(24)      0.001736    291.0   295.1
   261(21)      0.002268    290.7   295.4
   289(22)      0.002066    290.4   296.0
   319(24)      0.001736    290.0   297.2
   338(25)      0.001600    289.7   299.6
   315(24)      0.001736    289.4   304.8
   334(25)      0.001600    289.0   315.5
   350(25)      0.001600    288.7   335.6
   335(25)      0.001600    288.4   370.5
   402(27)      0.001372    288.0   426.8
   475(30)      0.001111    287.7   512.6
   557(33)      0.000918    287.4   637.0
   778(39)      0.000657    287.    805.
   862(41)      0.000595    287.    1007.
   1101(47)     0.000453    286.    1206.
   1171(48)     0.000434    286.    1338.
   1186(49)     0.000416    286.    1342.
   1047(46)     0.000473    285.    1200.
   859(41)      0.000595    285.    964.
   637(35)      0.000816    284.8   717.1
   460(29)      0.001189    284.5   523.0
   368(26)      0.001479    284.1   400.6
   325(24)      0.001736    283.8   337.0
   279(22)      0.002066    283.5   309.0
   321(24)      0.001736    283.2   297.8
   301(23)      0.001890    282.9   293.2
   289(22)      0.002066    282.6   291.0
   268(21)      0.002268    282.2   289.5
   278(22)      0.002066    281.9   288.4
   249(21)      0.002268    281.6   287.6
   307(23)      0.001890    281.3   287.0
   280(22)      0.002066    281.0   286.9
   291(23)      0.001890    280.7   287.6
   278(22)      0.002066    280.4   289.8
   291(23)      0.001890    280.1   294.6
   318(24)      0.001736    279.8   303.3
   309(23)      0.001890    279.5   317.8
   331(24)      0.001736    279.2   340.3
   360(26)      0.001479    278.9   372.2
   400(27)      0.001372    278.6   412.7
   495(31)      0.001041    278.3   455.9
   444(29)      0.001189    278.0   490.3
   449(29)      0.001189    277.7   501.9
   360(26)      0.001479    277.4   483.1
   375(26)      0.001479    277.1   439.5
   372(26)      0.001479    276.8   387.3
   322(24)      0.001736    276.5   341.7
   291(23)      0.001890    276.2   310.2
   326(24)      0.001736    276.0   292.3
   285(22)      0.002066    275.7   282.8
   302(23)      0.001890    275.4   279.1
   249(21)      0.002268    275.1   277.5
   237(20)      0.002500    274.8   276.6
   295(23)      0.001890    274.5   276.0
   282(22)      0.002066    274.2   275.5
   289(23)      0.001890    274.0   275.0
   272(22)      0.002066    273.7   274.6
   268(22)      0.002066    273.4   274.2
   274(22)      0.002066    273.1   273.8
   253(21)      0.002268    272.8   273.5
   274(22)      0.002066    272.6   273.1
   289(22)      0.002066    272.3   272.8
   291(23)      0.001890    272.0   272.7
   296(23)      0.001890    271.7   272.4
   286(22)      0.002066    271.5   272.1
   268(22)      0.002066    271.2   271.8
   253(21)      0.002268    270.9   271.6
   229(20)      0.002500    270.7   271.3
   258(21)      0.002268    270.4   271.0
   258(21)      0.002268    270.1   270.7
   283(22)      0.002066    269.9   270.5
   285(22)      0.002066    269.6   270.2
   279(22)      0.002066    269.3   270.0
   286(22)      0.002066    269.1   269.7
   306(23)      0.001890    268.8   269.5
   304(23)      0.001890    268.5   269.1
   262(21)      0.002268    268.3   268.9
   249(21)      0.002268    268.0   268.7
   271(22)      0.002066    267.8   268.5
   258(21)      0.002268    267.5   268.3
   273(22)      0.002066    267.3   268.1
   259(21)      0.002268    267.0   267.9
   279(22)      0.002066    266.7   267.8
   285(22)      0.002066    266.5   267.6
   264(21)      0.002268    266.2   267.5
   288(22)      0.002066    266.0   267.4
   261(21)      0.002268    265.7   267.4
   257(21)      0.002268    265.5   267.4
   230(20)      0.002500    265.2   267.4
   282(22)      0.002066    265.0   267.7
   262(21)      0.002268    264.7   268.3
   243(20)      0.002500    264.5   269.6
   257(20)      0.002500    264.3   272.7
   265(21)      0.002268    264.0   279.2
   277(21)      0.002268    263.8   291.8
   311(23)      0.001890    263.5   314.5
   343(24)      0.001736    263.3   351.6
   426(27)      0.001372    263.0   406.6
   490(29)      0.001189    262.8   477.7
   613(33)      0.000918    262.6   554.8
   756(37)      0.000730    262.    618.
   788(37)      0.000730    262.    645.
   674(34)      0.000865    261.9   620.1
   634(33)      0.000918    261.6   551.6
   499(29)      0.001189    261.4   465.1
   383(26)      0.001479    261.2   385.8
   330(23)      0.001890    260.9   328.3
   274(21)      0.002268    260.7   293.8
   302(22)      0.002066    260.5   276.4
   261(21)      0.002268    260.2   268.7
   273(21)      0.002268    260.0   265.4
   262(21)      0.002268    259.8   263.9
   279(21)      0.002268    259.6   263.0
   244(20)      0.002500    259.3   262.4
   259(21)      0.002268    259.1   261.9
   267(21)      0.002268    258.9   261.4
   256(20)      0.002500    258.7   261.0
   282(22)      0.002066    258.5   260.7
   302(22)      0.002066    258.2   260.4
   294(22)      0.002066    258.0   260.1
   280(21)      0.002268    257.8   259.9
   262(21)      0.002268    257.6   259.7
   249(20)      0.002500    257.4   259.5
   289(22)      0.002066    257.2   259.4
   253(20)      0.002500    256.9   259.2
   286(22)      0.002066    256.7   259.2
   281(21)      0.002268    256.5   259.1
   272(21)      0.002268    256.3   259.1
   239(20)      0.002500    256.1   259.2
   260(21)      0.002268    255.9   259.3
   261(21)      0.002268    255.7   259.5
   266(21)      0.002268    255.5   259.9
   258(20)      0.002500    255.3   260.7
   271(21)      0.002268    255.1   262.2
   273(21)      0.002268    254.9   265.4
   266(21)      0.002268    254.7   272.5
   266(21)      0.002268    254.4   287.1
   289(22)      0.002066    254.2   315.1
   331(23)      0.001890    254.0   364.1
   407(26)      0.001479    253.8   441.2
   487(29)      0.001189    253.6   547.4
   590(32)      0.000977    253.4   671.4
   732(36)      0.000772    253.    787.
   746(36)      0.000772    253.    857.
   784(37)      0.000730    253.    853.
   712(36)      0.000772    253.    770.
   643(34)      0.000865    252.5   640.4
   562(31)      0.001041    252.3   506.5
   441(28)      0.001276    252.1   398.9
   359(25)      0.001600    251.9   328.0
   330(24)      0.001736    251.7   288.7
   315(23)      0.001890    251.5   269.8
   255(20)      0.002500    251.3   261.6
   251(20)      0.002500    251.1   258.1
   249(20)      0.002500    251.0   256.3
   274(21)      0.002268    250.8   255.2
   274(21)      0.002268    250.6   254.4
   269(21)      0.002268    250.4   253.7
   236(20)      0.002500    250.2   253.2
   248(20)      0.002500    250.0   252.6
   264(21)      0.002268    249.9   252.2
   237(19)      0.002770    249.7   251.8
   255(20)      0.002500    249.5   251.5
   236(19)      0.002770    249.3   251.1
   250(20)      0.002500    249.1   250.8
   246(20)      0.002500    249.0   250.6
   284(22)      0.002066    248.8   250.3
   243(20)      0.002500    248.6   250.1
   259(21)      0.002268    248.4   249.9
   256(20)      0.002500    248.3   249.7
   252(20)      0.002500    248.1   249.6
   264(21)      0.002268    247.9   249.5
   260(21)      0.002268    247.7   249.5
   248(20)      0.002500    247.6   249.8
   246(20)      0.002500    247.4   250.7
   256(20)      0.002500    247.2   252.7
   246(20)      0.002500    247.1   256.8
   260(21)      0.002268    246.9   264.2
   251(20)      0.002500    246.7   276.0
   299(22)      0.002066    246.6   292.4
   377(25)      0.001600    246.4   311.6
   365(25)      0.001600    246.2   329.2
   374(25)      0.001600    246.1   339.9
   390(26)      0.001479    245.9   338.7
   362(25)      0.001600    245.8   326.2
   343(24)      0.001736    245.6   306.5
   325(23)      0.001890    245.4   285.9
   292(22)      0.002066    245.3   269.1
   240(20)      0.002500    245.1   258.6
   265(21)      0.002268    245.0   252.1
   266(21)      0.002268    244.8   248.8
   246(20)      0.002500    244.7   247.3
   286(22)      0.002066    244.5   246.7
   278(21)      0.002268    244.3   246.3
   262(21)      0.002268    244.2   246.0
   260(20)      0.002500    244.0   245.8
   257(20)      0.002500    243.9   245.7
   268(21)      0.002268    243.7   245.6
   268(21)      0.002268    243.6   245.4
   259(20)      0.002500    243.4   245.4
   259(20)      0.002500    243.3   245.3
   290(22)      0.002066    243.2   245.2
   265(21)      0.002268    243.0   245.2
   237(19)      0.002770    242.9   245.2
   238(19)      0.002770    242.7   245.2
   261(20)      0.002500    242.6   245.2
   231(19)      0.002770    242.4   245.3
   229(19)      0.002770    242.3   245.4
   208(18)      0.003086    242.1   245.6
   238(19)      0.002770    242.0   245.8
   251(20)      0.002500    241.9   246.1
   254(20)      0.002500    241.7   246.4
   257(20)      0.002500    241.6   246.8
   250(20)      0.002500    241.5   247.4
   251(20)      0.002500    241.3   248.1
   239(19)      0.002770    241.2   249.1
   247(20)      0.002500    241.0   250.6
   269(21)      0.002268    240.9   253.1
   245(20)      0.002500    240.8   258.0
   280(21)      0.002268    240.6   268.4
   322(23)      0.001890    240.5   290.4
   320(23)      0.001890    240.4   334.3
   418(27)      0.001372    240.3   414.4
   580(32)      0.000977    240.1   544.8
   750(36)      0.000772    240.    730.
   1033(43)     0.000541    240.    955.
   1273(48)     0.000434    240.    1174.
   1406(50)     0.000400    240.    1327.
   1467(51)     0.000384    239.    1356.
   1339(49)     0.000416    239.    1244.
   1112(44)     0.000517    239.    1033.
   800(37)      0.000730    239.    792.
   578(32)      0.000977    239.0   581.7
   424(27)      0.001372    238.9   429.8
   356(24)      0.001736    238.8   337.1
   297(22)      0.002066    238.6   288.1
   269(21)      0.002268    238.5   265.1
   294(22)      0.002066    238.4   255.0
   258(20)      0.002500    238.3   250.3
   256(20)      0.002500    238.2   247.8
   248(20)      0.002500    238.0   246.2
   249(20)      0.002500    237.9   245.0
   214(18)      0.003086    237.8   244.0
   254(20)      0.002500    237.7   243.1
   240(20)      0.002500    237.6   242.4
   241(19)      0.002770    237.5   241.8
   248(20)      0.002500    237.4   241.3
   239(19)      0.002770    237.3   240.8
   242(20)      0.002500    237.1   240.5
   250(20)      0.002500    237.0   240.1
   250(20)      0.002500    236.9   239.8
   249(20)      0.002500    236.8   239.5
   227(19)      0.002770    236.7   239.3
   236(19)      0.002770    236.6   239.1
   233(19)      0.002770    236.5   238.9
   244(20)      0.002500    236.4   238.9
   249(20)      0.002500    236.3   239.0
   239(19)      0.002770    236.2   239.3
   262(20)      0.002500    236.1   239.8
   270(21)      0.002268    236.0   240.4
   263(21)      0.002268    235.9   241.1
   269(21)      0.002268    235.8   241.5
   259(20)      0.002500    235.7   241.5
   245(20)      0.002500    235.6   241.1
   246(20)      0.002500    235.5   240.4
   241(20)      0.002500    235.4   239.6
   249(20)      0.002500    235.3   239.0
   262(20)      0.002500    235.2   237.9
   238(19)      0.002770    235.1   238.2
   241(20)      0.002500    235.0   239.4
   237(19)      0.002770    234.9   242.2
   229(19)      0.002770    234.8   248.2
   248(20)      0.002500    234.7   259.4
   279(21)      0.002268    234.6   278.0
   305(22)      0.002066    234.5   305.3
   342(24)      0.001736    234.4   339.5
   343(24)      0.001736    234.3   374.8
   400(26)      0.001479    234.3   402.1
   458(28)      0.001276    234.2   412.3
   450(28)      0.001276    234.1   400.9
   364(25)      0.001600    234.0   371.8
   323(23)      0.001890    233.9   335.0
   295(22)      0.002066    233.8   300.2
   280(21)      0.002268    233.7   273.2
   261(20)      0.002500    233.6   255.6
   242(20)      0.002500    233.6   246.0
   242(20)      0.002500    233.5   242.2
   254(20)      0.002500    233.4   242.4
   262(21)      0.002268    233.3   246.1
   274(21)      0.002268    233.2   253.4
   260(20)      0.002500    233.1   264.5
   282(21)      0.002268    233.1   278.5
   296(22)      0.002066    233.0   292.8
   311(22)      0.002066    232.9   303.8
   319(22)      0.002066    232.8   308.0
   301(22)      0.002066    232.8   303.1
   290(21)      0.002268    232.7   290.9
   266(20)      0.002500    232.6   275.6
   249(20)      0.002500    232.5   261.1
   247(19)      0.002770    232.4   249.8
   234(19)      0.002770    232.4   242.3
   245(19)      0.002770    232.3   237.9
   242(19)      0.002770    232.2   235.7
   269(20)      0.002500    232.2   234.6
   245(19)      0.002770    232.1   234.1
   258(20)      0.002500    232.0   233.8
   237(19)      0.002770    231.9   233.6
   237(19)      0.002770    231.9   233.5
   246(19)      0.002770    231.8   233.4
   273(21)      0.002268    231.7   233.3
   247(19)      0.002770    231.7   233.2
   232(19)      0.002770    231.6   233.2
   248(20)      0.002500    231.5   233.1
   233(19)      0.002770    231.5   233.1
   255(20)      0.002500    231.4   233.1
   255(20)      0.002500    231.3   233.1
   278(21)      0.002268    231.3   233.2
   257(20)      0.002500    231.2   233.2
   248(19)      0.002770    231.1   233.3
   235(19)      0.002770    231.1   233.4
   238(19)      0.002770    231.0   233.5
   250(20)      0.002500    230.9   233.7
   256(20)      0.002500    230.9   233.9
   237(19)      0.002770    230.8   234.1
   241(19)      0.002770    230.8   234.3
   249(20)      0.002500    230.7   234.7
   246(19)      0.002770    230.7   235.3
   239(19)      0.002770    230.6   235.9
   215(18)      0.003086    230.5   236.9
   248(19)      0.002770    230.5   238.5
   285(21)      0.002268    230.4   241.8
   290(21)      0.002268    230.4   248.3
   306(22)      0.002066    230.3   261.7
   329(23)      0.001890    230.3   287.9
   367(24)      0.001736    230.2   334.9
   486(28)      0.001276    230.1   410.0
   582(31)      0.001041    230.1   515.3
   634(32)      0.000977    230.0   642.1
   784(36)      0.000772    230.    768.
   812(37)      0.000730    230.    860.
   877(38)      0.000693    230.    888.
   870(38)      0.000693    230.    840.
   737(35)      0.000816    229.8   733.6
   632(32)      0.000977    229.7   601.7
   526(29)      0.001189    229.7   476.9
   406(25)      0.001600    229.6   378.8
   337(23)      0.001890    229.6   312.8
   321(23)      0.001890    229.6   274.0
   273(20)      0.002500    229.5   253.6
   222(18)      0.003086    229.5   243.9
   253(20)      0.002500    229.4   239.3
   240(19)      0.002770    229.4   237.1
   238(19)      0.002770    229.3   235.9
   224(18)      0.003086    229.3   235.0
   236(19)      0.002770    229.2   234.4
   230(19)      0.002770    229.2   233.9
   252(20)      0.002500    229.2   233.5
   240(19)      0.002770    229.1   233.3
   212(18)      0.003086    229.1   233.0
   224(18)      0.003086    229.0   232.9
   285(21)      0.002268    229.0   232.8
   272(21)      0.002268    229.0   232.8
   247(19)      0.002770    228.9   232.9
   263(20)      0.002500    228.9   233.0
   247(19)      0.002770    228.8   233.4
   282(21)      0.002268    228.8   234.0
   268(20)      0.002500    228.8   235.4
   250(20)      0.002500    228.7   238.4
   261(20)      0.002500    228.7   244.7
   283(21)      0.002268    228.7   256.9
   296(21)      0.002268    228.6   278.4
   339(23)      0.001890    228.6   312.5
   360(24)      0.001736    228.6   359.7
   443(27)      0.001372    228.5   416.2
   460(27)      0.001372    228.5   472.1
   532(29)      0.001189    228.5   513.5
   532(30)      0.001111    228.4   527.1
   502(29)      0.001189    228.4   507.6
   446(27)      0.001372    228.4   461.7
   388(25)      0.001600    228.3   403.5
   343(23)      0.001890    228.3   347.3
   291(21)      0.002268    228.3   301.9
   253(20)      0.002500    228.2   270.5
   260(20)      0.002500    228.2   251.3
   248(19)      0.002770    228.2   240.9
   235(19)      0.002770    228.2   235.8
   235(19)      0.002770    228.1   232.9
   243(19)      0.002770    228.1   231.7
   237(19)      0.002770    228.1   231.0
   224(18)      0.003086    228.1   230.6
   228(19)      0.002770    228.0   230.2
   230(15)      0.00444     228.0   230.0
   231(18)      0.003086    228.0   229.7
   223(17)      0.003460    228.0   229.6
   239(18)      0.003086    227.9   229.4
   232(18)      0.003086    227.9   229.3
   226(17)      0.003460    227.9   229.1
   229(18)      0.003086    227.9   229.0
   214(17)      0.003460    227.9   229.0
   228(18)      0.003086    227.8   228.9
   254(19)      0.002770    227.8   228.8
   264(19)      0.002770    227.8   228.8
   229(18)      0.003086    227.8   228.7
   239(18)      0.003086    227.8   228.7
   247(18)      0.003086    227.7   228.7
   237(18)      0.003086    227.7   228.7
   236(18)      0.003086    227.7   228.7
   270(19)      0.002770    227.7   228.7
   250(18)      0.003086    227.7   228.7
   231(18)      0.003086    227.6   228.7
   235(18)      0.003086    227.6   228.8
   233(18)      0.003086    227.6   228.9
   216(17)      0.003460    227.6   229.0
   217(17)      0.003460    227.6   229.2
   250(18)      0.003086    227.6   229.7
   254(19)      0.002770    227.6   230.7
   230(18)      0.003086    227.5   232.6
   244(18)      0.003086    227.5   236.3
   265(19)      0.002770    227.5   242.7
   275(19)      0.002770    227.5   252.7
   272(19)      0.002770    227.5   266.5
   308(21)      0.002268    227.5   283.1
   323(21)      0.002268    227.5   299.8
   312(21)      0.002268    227.5   313.3
   339(22)      0.002066    227.4   319.8
   366(23)      0.001890    227.4   317.7
   357(22)      0.002066    227.4   308.7
   303(20)      0.002500    227.4   296.4
   280(20)      0.002500    227.4   284.5
   261(19)      0.002770    227.4   275.1
   268(19)      0.002770    227.4   268.1
   257(19)      0.002770    227.4   262.3
   244(18)      0.003086    227.4   256.7
   264(19)      0.002770    227.4   250.6
   263(19)      0.002770    227.4   244.7
   232(18)      0.003086    227.4   239.4
   234(18)      0.003086    227.3   235.1
   245(18)      0.003086    227.3   232.2
   219(17)      0.003460    227.3   230.3
   240(18)      0.003086    227.3   229.3
   239(18)      0.003086    227.3   228.7
   239(18)      0.003086    227.3   228.5
   229(18)      0.003086    227.3   228.4
   211(17)      0.003460    227.3   228.4
   249(18)      0.003086    227.3   228.6
   246(18)      0.003086    227.3   229.1
   215(17)      0.003460    227.3   229.7
   224(17)      0.003460    227.3   230.5
   243(18)      0.003086    227.3   231.5
   269(19)      0.002770    227.3   232.3
   233(18)      0.003086    227.3   232.8
   227(18)      0.003086    227.3   232.8
   241(18)      0.003086    227.3   232.3
   249(18)      0.003086    227.3   231.4
   242(18)      0.003086    227.3   231.0
   229(18)      0.003086    227.3   230.1
   205(17)      0.003460    227.3   229.5
   217(17)      0.003460    227.3   229.1
   232(18)      0.003086    227.3   228.8
   216(17)      0.003460    227.3   228.7
   219(17)      0.003460    227.3   228.9
   241(18)      0.003086    227.3   228.9
   230(18)      0.003086    227.3   229.0
   232(18)      0.003086    227.3   229.1
   227(18)      0.003086    227.3   229.2
   215(17)      0.003460    227.3   229.5
   218(17)      0.003460    227.3   229.8
   223(17)      0.003460    227.3   230.6
   246(18)      0.003086    227.3   231.9
   246(18)      0.003086    227.3   234.3
   196(16)      0.00391     227.3   238.2
   236(18)      0.003086    227.4   244.3
   271(19)      0.002770    227.4   252.3
   266(19)      0.002770    227.4   261.9
   281(20)      0.002500    227.4   271.3
   280(20)      0.002500    227.4   278.6
   280(20)      0.002500    227.4   281.8
   282(20)      0.002500    227.4   279.8
   277(19)      0.002770    227.4   273.3
   280(20)      0.002500    227.4   264.3
   289(20)      0.002500    227.4   254.9
   252(19)      0.002770    227.4   246.8
   257(19)      0.002770    227.4   240.8
   212(17)      0.003460    227.4   237.0
   214(17)      0.003460    227.5   234.8
   225(17)      0.003460    227.5   233.9
   227(18)      0.003086    227.5   233.6
   244(18)      0.003086    227.5   233.9
   240(18)      0.003086    227.5   234.4
   238(18)      0.003086    227.5   235.2
   245(18)      0.003086    227.5   236.4
   253(18)      0.003086    227.5   238.4
   252(18)      0.003086    227.5   241.9
   278(18)      0.003086    227.5   248.3
   293(19)      0.002770    227.6   259.4
   313(20)      0.002500    227.6   277.8
   357(21)      0.002268    227.6   305.8
   410(23)      0.001890    227.6   344.8
   429(23)      0.001890    227.6   394.7
   487(25)      0.001600    227.6   453.6
   527(26)      0.001479    227.6   518.6
   613(28)      0.001276    227.6   588.1
   631(28)      0.001276    227.7   662.9
   715(30)      0.001111    227.7   745.9
   806(32)      0.000977    227.7   837.2
   914(34)      0.000865    227.7   928.2
   1018(36)     0.000772    228.    1001.
   1145(38)     0.000693    228.    1034.
   1147(38)     0.000693    228.    1016.
   1021(36)     0.000772    228.    951.
   874(33)      0.000918    227.8   859.9
   783(32)      0.000977    227.8   764.6
   724(30)      0.001111    227.8   678.5
   619(28)      0.001276    227.8   604.6
   554(26)      0.001479    227.8   539.1
   481(25)      0.001600    227.9   477.8
   414(23)      0.001890    227.9   420.1
   349(21)      0.002268    227.9   368.2
   321(20)      0.002500    227.9   324.9
   289(19)      0.002770    227.9   291.7
   282(19)      0.002770    227.9   268.6
   246(17)      0.003460    228.0   253.8
   253(18)      0.003086    228.0   245.1
   215(16)      0.00391     228.0   240.3
   213(16)      0.00391     228.0   237.7
   225(17)      0.003460    228.0   236.3
   221(16)      0.00391     228.1   235.5
   194(15)      0.00444     228.1   235.2
   207(16)      0.00391     228.1   235.1
   243(17)      0.003460    228.1   235.2
   239(17)      0.003460    228.1   235.2
   249(17)      0.003460    228.1   235.2
   249(17)      0.003460    228.2   234.9
   213(16)      0.00391     228.2   234.3
   243(17)      0.003460    228.2   233.6
   239(17)      0.003460    228.2   232.9
   246(17)      0.003460    228.2   232.2
   235(17)      0.003460    228.3   231.6
   218(16)      0.00391     228.3   231.2
   231(17)      0.003460    228.3   230.8
   216(16)      0.00391     228.3   230.6
   196(15)      0.00444     228.3   230.5
   221(16)      0.00391     228.4   230.4
   238(17)      0.003460    228.4   230.3
   229(17)      0.003460    228.4   230.3
   242(17)      0.003460    228.4   230.3
   227(17)      0.003460    228.5   230.4
   217(16)      0.00391     228.5   230.7
   215(16)      0.00391     228.5   231.3
   216(16)      0.00391     228.5   232.2
   223(16)      0.00391     228.5   233.6
   249(17)      0.003460    228.6   235.4
   203(16)      0.00391     228.6   237.5
   205(16)      0.00391     228.6   239.6
   227(17)      0.003460    228.6   241.1
   222(16)      0.00391     228.7   241.8
   219(16)      0.00391     228.7   241.5
   215(16)      0.00391     228.7   240.1
   215(16)      0.00391     228.7   238.1
   227(17)      0.003460    228.8   236.0
   217(16)      0.00391     228.8   233.5
   191(15)      0.00444     228.8   231.9
   205(16)      0.00391     228.8   230.8
   245(17)      0.003460    228.8   230.1
   245(17)      0.003460    228.9   229.7
   230(17)      0.003460    228.9   229.6
   213(16)      0.00391     228.9   229.3
   201(16)      0.00391     228.9   229.3
   225(17)      0.003460    229.0   229.4
   220(16)      0.00391     229.0   229.5
   235(17)      0.003460    229.0   229.6
   227(17)      0.003460    229.0   229.9
   226(17)      0.003460    229.1   230.4
   236(17)      0.003460    229.1   231.1
   217(16)      0.00391     229.1   232.0
   215(16)      0.00391     229.1   233.2
   235(17)      0.003460    229.2   234.6
   231(17)      0.003460    229.2   236.0
   249(17)      0.003460    229.2   237.3
   221(16)      0.00391     229.2   238.3
   232(17)      0.003460    229.3   239.2
   241(17)      0.003460    229.3   239.8
   241(17)      0.003460    229.3   240.2
   216(16)      0.00391     229.4   240.3
   211(16)      0.00391     229.4   239.9
   238(17)      0.003460    229.4   239.1
   242(17)      0.003460    229.4   237.7
   225(17)      0.003460    229.5   236.1
   213(16)      0.00391     229.5   234.5
   219(16)      0.00391     229.5   233.1
   222(16)      0.00391     229.5   231.9
   251(16)      0.00391     229.6   231.2
   232(16)      0.00391     229.6   230.7
   231(16)      0.00391     229.6   230.4
   253(16)      0.00391     229.6   230.3
   243(16)      0.00391     229.7   230.2
   239(16)      0.00391     229.7   230.2
   226(16)      0.00391     229.7   230.2
   221(15)      0.00444     229.7   230.3
   198(14)      0.00510     229.8   230.3
   227(16)      0.00391     229.8   230.4
   212(15)      0.00444     229.8   230.4
   238(16)      0.00391     229.9   230.5
   254(17)      0.003460    229.9   230.6
   239(16)      0.00391     229.9   230.7
   224(15)      0.00444     229.9   230.8
   228(16)      0.00391     230.0   231.0
   254(17)      0.003460    230.0   231.4
   269(17)      0.003460    230.0   232.1
   233(16)      0.00391     230.0   233.2
   254(17)      0.003460    230.1   235.3
   225(15)      0.00444     230.1   238.6
   233(16)      0.00391     230.1   243.6
   268(17)      0.003460    230.2   250.4
   262(17)      0.003460    230.2   258.8
   255(17)      0.003460    230.2   268.0
   280(17)      0.003460    230.2   276.5
   312(18)      0.003086    230.3   282.8
   309(18)      0.003086    230.3   285.2
   304(18)      0.003086    230.3   283.1
   300(18)      0.003086    230.3   277.4
   286(18)      0.003086    230.4   269.7
   265(17)      0.003460    230.4   262.0
   257(17)      0.003460    230.4   255.8
   243(16)      0.00391     230.5   252.0
   245(16)      0.00391     230.5   250.8
   249(16)      0.00391     230.5   251.6
   247(16)      0.00391     230.5   253.4
   259(17)      0.003460    230.6   255.1
   261(17)      0.003460    230.6   255.8
   236(16)      0.00391     230.6   254.7
   274(17)      0.003460    230.7   252.1
   252(16)      0.00391     230.7   248.4
   240(16)      0.00391     230.7   244.4
   242(16)      0.00391     230.7   240.8
   218(15)      0.00444     230.8   237.8
   231(16)      0.00391     230.8   235.8
   250(16)      0.00391     230.8   234.6
   227(16)      0.00391     230.8   234.2
   247(16)      0.00391     230.9   234.6
   241(16)      0.00391     230.9   235.6
   237(16)      0.00391     230.9   237.4
   271(17)      0.003460    231.0   239.9
   240(16)      0.00391     231.0   243.2
   239(16)      0.00391     231.0   247.4
   260(17)      0.003460    231.0   252.3
   278(17)      0.003460    231.1   257.9
   268(17)      0.003460    231.1   263.9
   297(18)      0.003086    231.1   269.9
   311(18)      0.003086    231.1   275.1
   281(17)      0.003460    231.2   278.6
   292(18)      0.003086    231.2   279.3
   291(18)      0.003086    231.2   276.7
   257(17)      0.003460    231.3   271.3
   290(18)      0.003086    231.3   264.3
   279(17)      0.003460    231.3   256.7
   272(17)      0.003460    231.3   249.8
   253(17)      0.003460    231.4   244.2
   256(17)      0.003460    231.4   240.1
   238(16)      0.00391     231.4   237.4
   230(16)      0.00391     231.4   235.8
   232(16)      0.00391     231.5   234.9
   217(15)      0.00444     231.5   234.3
   205(15)      0.00444     231.5   233.9
   242(16)      0.00391     231.6   233.7
   251(16)      0.00391     231.6   233.4
   225(15)      0.00444     231.6   233.1
   243(16)      0.00391     231.6   232.8
   235(16)      0.00391     231.7   232.6
   231(16)      0.00391     231.7   232.5
   227(16)      0.00391     231.7   232.4
   234(16)      0.00391     231.7   232.3
   233(16)      0.00391     231.8   232.3
   239(16)      0.00391     231.8   232.3
   252(16)      0.00391     231.8   232.3
   231(16)      0.00391     231.8   232.3
   232(16)      0.00391     231.9   232.3
   231(16)      0.00391     231.9   232.3
   254(17)      0.003460    231.9   232.4
   247(16)      0.00391     231.9   232.4
   231(16)      0.00391     232.0   232.4
   250(16)      0.00391     232.0   232.4
   210(15)      0.00444     232.0   232.5
   227(16)      0.00391     232.1   232.5
   260(17)      0.003460    232.1   232.5
   227(16)      0.00391     232.1   232.7
   226(16)      0.00391     232.1   232.7
   230(16)      0.00391     232.2   232.8
   250(16)      0.00391     232.2   232.8
   243(16)      0.00391     232.2   232.9
   209(15)      0.00444     232.2   232.9
   221(14)      0.00510     232.3   233.0
   230(15)      0.00444     232.3   233.1
   249(15)      0.00444     232.3   233.1
   244(15)      0.00444     232.3   233.2
   255(16)      0.00391     232.4   233.4
   247(15)      0.00444     232.4   233.5
   242(15)      0.00444     232.4   233.6
   252(15)      0.00444     232.4   233.8
   252(15)      0.00444     232.5   233.9
   243(15)      0.00444     232.5   234.1
   240(15)      0.00444     232.5   234.3
   243(15)      0.00444     232.5   234.7
   229(15)      0.00444     232.5   235.2
   240(15)      0.00444     232.6   236.1
   244(15)      0.00444     232.6   238.0
   261(16)      0.00391     232.6   240.6
   261(16)      0.00391     232.6   244.9
   274(16)      0.00391     232.7   251.3
   279(16)      0.00391     232.7   260.1
   303(17)      0.003460    232.7   271.3
   301(17)      0.003460    232.7   284.2
   283(16)      0.00391     232.8   297.4
   326(18)      0.003086    232.8   309.0
   316(17)      0.003460    232.8   317.0
   318(18)      0.003086    232.8   319.9
   309(17)      0.003460    232.8   317.6
   312(17)      0.003460    232.9   311.6
   299(17)      0.003460    232.9   304.6
   300(17)      0.003460    232.9   299.0
   301(17)      0.003460    232.9   296.5
   278(16)      0.00391     233.0   297.8
   300(17)      0.003460    233.0   302.1
   284(16)      0.00391     233.0   307.8
   323(18)      0.003086    233.0   312.7
   296(17)      0.003460    233.0   314.8
   311(17)      0.003460    233.1   312.9
   321(18)      0.003086    233.1   307.2
   328(18)      0.003086    233.1   299.0
   287(17)      0.003460    233.1   289.6
   289(17)      0.003460    233.2   280.0
   262(16)      0.00391     233.2   271.1
   285(16)      0.00391     233.2   263.4
   236(15)      0.00444     233.2   257.4
   241(15)      0.00444     233.2   253.3
   241(15)      0.00444     233.3   251.4
   250(15)      0.00444     233.3   252.1
   262(16)      0.00391     233.3   255.9
   261(16)      0.00391     233.3   263.7
   276(16)      0.00391     233.3   275.9
   296(17)      0.003460    233.4   292.6
   302(17)      0.003460    233.4   313.3
   346(18)      0.003086    233.4   336.2
   355(19)      0.002770    233.4   358.6
   393(20)      0.002500    233.4   377.1
   415(20)      0.002500    233.5   388.7
   433(21)      0.002268    233.5   391.9
   397(20)      0.002500    233.5   387.8
   385(19)      0.002770    233.5   379.9
   375(19)      0.002770    233.5   372.6
   329(18)      0.003086    233.5   369.9
   383(19)      0.002770    233.6   373.8
   374(19)      0.002770    233.6   384.1
   409(20)      0.002500    233.6   398.3
   431(21)      0.002268    233.6   412.5
   463(21)      0.002268    233.6   422.7
   436(21)      0.002268    233.7   426.5
   435(21)      0.002268    233.7   424.7
   422(20)      0.002500    233.7   421.3
   419(20)      0.002500    233.7   421.3
   410(20)      0.002500    233.7   429.3
   428(20)      0.002500    233.7   447.2
   469(21)      0.002268    233.8   473.7
   489(22)      0.002066    233.8   504.0
   518(23)      0.001890    233.8   530.9
   574(24)      0.001736    233.8   546.3
   541(23)      0.001890    233.8   544.2
   526(23)      0.001890    233.8   523.3
   458(21)      0.002268    233.8   487.1
   430(20)      0.002500    233.9   442.3
   379(19)      0.002770    233.9   395.8
   303(17)      0.003460    233.9   353.0
   299(17)      0.003460    233.9   317.4
   280(16)      0.00391     233.9   290.5
   261(16)      0.00391     233.9   271.8
   220(14)      0.00510     234.0   260.1
   236(15)      0.00444     234.0   254.2
   235(15)      0.00444     234.0   252.4
   256(16)      0.00391     234.0   254.0
   267(16)      0.00391     234.0   258.5
   245(15)      0.00444     234.0   265.7
   248(15)      0.00444     234.0   275.0
   291(17)      0.003460    234.0   285.6
   296(17)      0.003460    234.1   296.4
   350(18)      0.003086    234.1   305.9
   308(17)      0.003460    234.1   312.5
   292(17)      0.003460    234.1   315.3
   311(17)      0.003460    234.1   314.2
   321(18)      0.003086    234.1   310.1
   345(18)      0.003086    234.1   304.7
   319(18)      0.003086    234.2   299.5
   300(16)      0.00391     234.2   295.6
   325(17)      0.003460    234.2   293.3
   317(17)      0.003460    234.2   292.4
   311(17)      0.003460    234.2   291.8
   309(17)      0.003460    234.2   290.6
   283(16)      0.00391     234.2   287.6
   299(16)      0.00391     234.2   282.7
   292(16)      0.00391     234.2   276.2
   306(17)      0.003460    234.3   268.8
   272(16)      0.00391     234.3   261.4
   250(15)      0.00444     234.3   254.8
   257(15)      0.00444     234.3   249.2
   236(14)      0.00510     234.3   245.0
   241(15)      0.00444     234.3   242.2
   241(15)      0.00444     234.3   240.2
   244(15)      0.00444     234.3   238.8
   246(15)      0.00444     234.3   238.1
   241(15)      0.00444     234.3   237.7
   250(15)      0.00444     234.3   237.5
   251(15)      0.00444     234.4   237.4
   272(16)      0.00391     234.4   237.3
   241(15)      0.00444     234.4   237.3
   258(15)      0.00444     234.4   237.3
   242(15)      0.00444     234.4   237.4
   250(15)      0.00444     234.4   237.5
   240(15)      0.00444     234.4   237.6
   258(15)      0.00444     234.4   237.9
   218(14)      0.00510     234.4   238.4
   245(15)      0.00444     234.4   239.2
   238(15)      0.00444     234.4   240.6
   250(15)      0.00444     234.4   242.6
   281(16)      0.00391     234.4   245.6
   268(16)      0.00391     234.4   249.8
   293(16)      0.00391     234.5   255.1
   317(17)      0.003460    234.5   261.4
   324(17)      0.003460    234.5   268.0
   295(16)      0.00391     234.5   274.8
   315(17)      0.003460    234.5   280.4
   311(17)      0.003460    234.5   284.2
   325(17)      0.003460    234.5   285.5
   302(17)      0.003460    234.5   284.4
   258(15)      0.00444     234.5   281.9
   265(15)      0.00444     234.5   279.5
   296(16)      0.00391     234.5   279.0
   306(17)      0.003460    234.5   282.6
   306(17)      0.003460    234.5   292.2
   288(16)      0.00391     234.5   309.6
   355(18)      0.003086    234.5   335.5
   392(19)      0.002770    234.5   369.7
   439(20)      0.002500    234.5   410.3
   482(21)      0.002268    234.5   453.6
   526(22)      0.002066    234.5   494.6
   529(22)      0.002066    234.5   527.1
   521(22)      0.002066    234.5   545.5
   518(22)      0.002066    234.5   546.4
   482(21)      0.002268    234.5   530.4
   462(21)      0.002268    234.5   501.2
   458(21)      0.002268    234.5   464.2
   423(20)      0.002500    234.5   424.7
   437(20)      0.002500    234.5   386.8
   348(18)      0.003086    234.5   353.4
   325(17)      0.003460    234.5   325.9
   299(16)      0.00391     234.5   304.3
   314(17)      0.003460    234.5   288.1
   289(16)      0.00391     234.5   276.0
   268(16)      0.00391     234.5   267.0
   263(15)      0.00444     234.5   260.6
   241(15)      0.00444     234.5   256.2
   274(16)      0.00391     234.5   253.5
   271(16)      0.00391     234.5   252.8
   251(15)      0.00444     234.5   254.3
   247(15)      0.00444     234.5   258.9
   266(15)      0.00444     234.5   267.7
   276(16)      0.00391     234.5   282.1
   302(17)      0.003460    234.5   303.5
   330(17)      0.003460    234.5   332.9
   372(18)      0.003086    234.5   370.5
   443(20)      0.002500    234.5   414.8
   507(22)      0.002066    234.5   462.6
   542(22)      0.002066    234.5   508.9
   604(24)      0.001736    234.5   547.3
   613(24)      0.001736    234.5   571.5
   605(24)      0.001736    234.5   576.6
   607(24)      0.001736    234.5   561.5
   578(23)      0.001890    234.5   529.5
   505(22)      0.002066    234.5   486.3
   440(20)      0.002500    234.5   438.6
   376(19)      0.002770    234.5   392.2
   360(18)      0.003086    234.5   351.3
   294(16)      0.00391     234.5   318.5
   270(16)      0.00391     234.5   294.5
   257(15)      0.00444     234.5   278.9
   255(15)      0.00444     234.5   270.7
   277(16)      0.00391     234.5   268.8
   258(15)      0.00444     234.5   271.8
   253(15)      0.00444     234.5   278.7
   266(15)      0.00444     234.5   288.1
   288(16)      0.00391     234.4   298.8
   305(17)      0.003460    234.4   309.2
   336(18)      0.003086    234.4   317.5
   346(17)      0.003460    234.4   322.3
   320(17)      0.003460    234.4   322.6
   306(16)      0.00391     234.4   318.3
   318(16)      0.00391     234.4   310.3
   320(17)      0.003460    234.4   300.3
   297(16)      0.00391     234.4   290.0
   298(16)      0.00391     234.4   281.1
   302(16)      0.00391     234.4   274.4
   289(16)      0.00391     234.4   271.1
   256(15)      0.00444     234.4   271.5
   264(15)      0.00444     234.3   275.7
   287(16)      0.00391     234.3   283.4
   295(16)      0.00391     234.3   293.9
   300(16)      0.00391     234.3   306.6
   339(17)      0.003460    234.3   320.2
   346(17)      0.003460    234.3   333.4
   333(17)      0.003460    234.3   344.9
   374(18)      0.003086    234.3   353.2
   371(18)      0.003086    234.3   357.1
   320(16)      0.00391     234.3   355.8
   355(17)      0.003460    234.2   349.0
   376(18)      0.003086    234.2   337.5
   337(17)      0.003460    234.2   322.9
   322(17)      0.003460    234.2   307.2
   305(16)      0.00391     234.2   291.9
   278(15)      0.00444     234.2   278.1
   261(15)      0.00444     234.2   266.7
   261(15)      0.00444     234.2   257.7
   262(15)      0.00444     234.2   251.1
   233(14)      0.00510     234.1   246.4
   249(14)      0.00510     234.1   243.2
   266(15)      0.00444     234.1   241.0
   233(14)      0.00510     234.1   239.6
   231(14)      0.00510     234.1   238.6
   239(14)      0.00510     234.1   237.9
   229(14)      0.00510     234.1   237.4
   237(14)      0.00510     234.1   237.1
   248(14)      0.00510     234.0   236.8
   251(15)      0.00444     234.0   236.7
   236(14)      0.00510     234.0   236.6
   227(14)      0.00510     234.0   236.7
   225(14)      0.00510     234.0   236.9
   228(14)      0.00510     234.0   237.3
   237(14)      0.00510     234.0   237.9
   234(14)      0.00510     233.9   238.7
   230(14)      0.00510     233.9   239.8
   246(14)      0.00510     233.9   241.1
   240(14)      0.00510     233.9   242.6
   234(14)      0.00510     233.9   244.1
   238(14)      0.00510     233.9   245.4
   236(14)      0.00510     233.8   246.2
   251(15)      0.00444     233.8   246.7
   240(14)      0.00510     233.8   246.6
   247(14)      0.00510     233.8   245.9
   244(14)      0.00510     233.8   244.8
   249(14)      0.00510     233.8   243.4
   252(15)      0.00444     233.7   242.0
   261(15)      0.00444     233.7   240.6
   242(14)      0.00510     233.7   239.4
   231(14)      0.00510     233.7   238.5
   234(14)      0.00510     233.7   238.0
   229(14)      0.00510     233.7   237.7
   226(14)      0.00510     233.6   237.6
   245(14)      0.00510     233.6   237.7
   228(14)      0.00510     233.6   238.1
   259(15)      0.00444     233.6   238.9
   250(14)      0.00510     233.6   240.0
   242(14)      0.00510     233.5   241.5
   263(15)      0.00444     233.5   243.5
   262(15)      0.00444     233.5   246.0
   259(15)      0.00444     233.5   249.3
   237(14)      0.00510     233.5   253.5
   293(16)      0.00391     233.4   258.9
   262(15)      0.00444     233.4   265.9
   290(16)      0.00391     233.4   275.0
   302(16)      0.00391     233.4   286.9
   324(17)      0.003460    233.4   302.3
   324(17)      0.003460    233.3   321.6
   358(18)      0.003086    233.3   344.9
   403(19)      0.002770    233.3   371.6
   414(19)      0.002770    233.3   400.3
   454(20)      0.002500    233.3   428.7
   486(21)      0.002268    233.2   454.1
   488(21)      0.002268    233.2   473.6
   502(21)      0.002268    233.2   485.0
   502(21)      0.002268    233.2   487.4
   527(21)      0.002268    233.1   480.9
   513(21)      0.002268    233.1   466.4
   488(21)      0.002268    233.1   445.2
   430(19)      0.002770    233.1   419.3
   393(18)      0.003086    233.1   390.8
   352(17)      0.003460    233.0   362.1
   325(17)      0.003460    233.0   335.3
   318(17)      0.003460    233.0   311.5
   296(16)      0.00391     233.0   291.7
   265(15)      0.00444     232.9   276.0
   255(15)      0.00444     232.9   264.2
   264(15)      0.00444     232.9   255.9
   239(14)      0.00510     232.9   250.5
   238(14)      0.00510     232.8   247.7
   270(21)      0.002268    232.8   246.9
   241(14)      0.00510     232.8   248.0
   261(14)      0.00510     232.8   250.8
   278(15)      0.00444     232.7   255.1
   282(15)      0.00444     232.7   260.9
   271(15)      0.00444     232.7   267.7
   274(15)      0.00444     232.7   275.3
   292(15)      0.00444     232.6   283.0
   304(16)      0.00391     232.6   290.0
   285(15)      0.00444     232.6   295.5
   299(15)      0.00444     232.6   298.9
   315(16)      0.00391     232.5   300.0
   338(16)      0.00391     232.5   299.0
   310(16)      0.00391     232.5   296.5
   312(16)      0.00391     232.5   293.1
   302(16)      0.00391     232.4   289.5
   294(15)      0.00444     232.4   286.1
   281(15)      0.00444     232.4   283.0
   291(15)      0.00444     232.3   280.1
   277(15)      0.00444     232.3   277.0
   263(15)      0.00444     232.3   273.7
   274(15)      0.00444     232.3   270.0
   282(15)      0.00444     232.2   266.3
   279(15)      0.00444     232.2   263.0
   273(15)      0.00444     232.2   260.7
   265(15)      0.00444     232.2   260.1
   283(15)      0.00444     232.1   262.0
   261(14)      0.00510     232.1   267.1
   279(15)      0.00444     232.1   276.4
   306(16)      0.00391     232.0   290.3
   311(16)      0.00391     232.0   309.1
   331(16)      0.00391     232.0   332.5
   377(17)      0.003460    231.9   359.5
   419(18)      0.003086    231.9   388.2
   412(18)      0.003086    231.9   416.1
   414(18)      0.003086    231.9   440.0
   431(19)      0.002770    231.8   456.8
   452(19)      0.002770    231.8   463.9
   450(19)      0.002770    231.8   460.0
   457(19)      0.002770    231.7   445.8
   413(18)      0.003086    231.7   423.7
   406(18)      0.003086    231.7   396.7
   380(18)      0.003086    231.6   368.0
   360(17)      0.003460    231.6   340.3
   338(17)      0.003460    231.6   315.3
   297(15)      0.00444     231.6   294.4
   288(15)      0.00444     231.5   277.7
   261(14)      0.00510     231.5   265.3
   249(14)      0.00510     231.5   256.4
   252(14)      0.00510     231.4   250.4
   253(14)      0.00510     231.4   246.8
   265(15)      0.00444     231.4   244.8
   257(14)      0.00510     231.3   244.2
   243(14)      0.00510     231.3   244.4
   242(14)      0.00510     231.3   245.3
   246(14)      0.00510     231.2   246.6
   261(14)      0.00510     231.2   247.9
   260(14)      0.00510     231.2   249.1
   270(15)      0.00444     231.1   249.9
   255(14)      0.00510     231.1   250.1
   249(14)      0.00510     231.1   249.5
   245(14)      0.00510     231.0   248.4
   241(14)      0.00510     231.0   246.8
   247(14)      0.00510     231.0   244.9
   246(14)      0.00510     230.9   243.0
   242(14)      0.00510     230.9   241.1
   228(13)      0.00592     230.9   239.4
   231(14)      0.00510     230.8   238.0
   226(13)      0.00592     230.8   236.9
   219(13)      0.00592     230.8   236.1
   223(13)      0.00592     230.7   235.7
   231(14)      0.00510     230.7   235.4
   223(13)      0.00592     230.7   235.4
   231(14)      0.00510     230.6   235.7
   223(13)      0.00592     230.6   236.3
   238(14)      0.00510     230.6   237.4
   230(14)      0.00510     230.5   239.1
   204(13)      0.00592     230.5   241.9
   228(13)      0.00592     230.5   246.3
   257(14)      0.00510     230.4   252.7
   244(14)      0.00510     230.4   261.9
   257(14)      0.00510     230.4   274.5
   290(15)      0.00444     230.3   290.8
   310(16)      0.00391     230.3   311.1
   352(17)      0.003460    230.3   334.9
   365(17)      0.003460    230.2   361.2
   397(18)      0.003086    230.2   388.4
   426(19)      0.002770    230.2   414.1
   460(19)      0.002770    230.1   435.8
   456(19)      0.002770    230.1   450.9
   456(19)      0.002770    230.0   457.4
   434(19)      0.002770    230.0   454.4
   426(19)      0.002770    230.0   442.6
   403(18)      0.003086    229.9   423.8
   392(18)      0.003086    229.9   400.5
   387(18)      0.003086    229.9   374.9
   365(17)      0.003460    229.8   349.3
   337(16)      0.00391     229.8   325.3
   320(16)      0.00391     229.8   304.1
   301(16)      0.00391     229.7   286.3
   260(15)      0.00444     229.7   272.0
   244(14)      0.00510     229.6   261.1
   258(15)      0.00444     229.6   253.0
   261(15)      0.00444     229.6   247.3
   234(14)      0.00510     229.5   243.6
   239(14)      0.00510     229.5   241.3
   224(14)      0.00510     229.5   240.4
   230(14)      0.00510     229.4   240.4
   234(14)      0.00510     229.4   241.2
   230(14)      0.00510     229.3   242.7
   231(14)      0.00510     229.3   244.7
   249(14)      0.00510     229.3   247.1
   248(14)      0.00510     229.2   249.6
   243(14)      0.00510     229.2   251.9
   239(14)      0.00510     229.2   253.6
   240(14)      0.00510     229.1   254.8
   239(14)      0.00510     229.1   255.2
   246(14)      0.00510     229.0   254.7
   258(15)      0.00444     229.0   253.6
   247(14)      0.00510     229.0   252.1
   268(15)      0.00444     228.9   250.6
   258(15)      0.00444     228.9   249.6
   247(14)      0.00510     228.9   249.6
   222(13)      0.00592     228.8   250.8
   252(14)      0.00510     228.8   253.7
   275(15)      0.00444     228.7   258.3
   257(15)      0.00444     228.7   264.6
   288(15)      0.00444     228.7   272.4
   273(15)      0.00444     228.6   281.4
   278(15)      0.00444     228.6   290.7
   273(15)      0.00444     228.5   299.5
   297(16)      0.00391     228.5   306.9
   324(16)      0.00391     228.5   311.8
   299(16)      0.00391     228.4   313.7
   314(16)      0.00391     228.4   312.1
   300(16)      0.00391     228.4   307.4
   285(15)      0.00444     228.3   300.3
   278(15)      0.00444     228.3   291.7
   258(15)      0.00444     228.2   282.6
   273(15)      0.00444     228.2   274.0
   267(15)      0.00444     228.2   266.5
   273(15)      0.00444     228.1   260.8
   255(14)      0.00510     228.1   257.0
   259(15)      0.00444     228.0   255.1
   265(15)      0.00444     228.0   255.2
   239(14)      0.00510     228.0   256.7
   244(14)      0.00510     227.9   259.4
   250(14)      0.00510     227.9   262.7
   265(15)      0.00444     227.8   266.2
   243(14)      0.00510     227.8   269.4
   245(14)      0.00510     227.8   271.9
   251(14)      0.00510     227.7   273.4
   248(14)      0.00510     227.7   273.9
   270(15)      0.00444     227.6   273.5
   241(14)      0.00510     227.6   272.4
   260(15)      0.00444     227.6   270.9
   279(15)      0.00444     227.5   269.0
   252(14)      0.00510     227.5   266.8
   266(15)      0.00444     227.4   264.4
   273(15)      0.00444     227.4   261.7
   250(14)      0.00510     227.4   258.8
   257(15)      0.00444     227.3   255.7
   258(15)      0.00444     227.3   252.5
   234(14)      0.00510     227.2   249.6
   234(14)      0.00510     227.2   247.1
   237(14)      0.00510     227.2   245.2
   231(14)      0.00510     227.1   244.4
   211(13)      0.00592     227.1   244.7
   233(14)      0.00510     227.0   246.8
   236(14)      0.00510     227.0   250.9
   238(14)      0.00510     227.0   257.3
   241(14)      0.00510     226.9   266.3
   288(15)      0.00444     226.9   278.1
   291(15)      0.00444     226.8   292.4
   303(16)      0.00391     226.8   308.9
   308(16)      0.00391     226.8   326.7
   348(17)      0.003460    226.7   344.8
   357(17)      0.003460    226.7   361.6
   374(18)      0.003086    226.6   375.7
   393(18)      0.003086    226.6   385.2
   397(18)      0.003086    226.6   388.9
   384(18)      0.003086    226.5   386.4
   400(18)      0.003086    226.5   378.1
   363(17)      0.003460    226.4   365.0
   339(17)      0.003460    226.4   348.8
   330(16)      0.00391     226.4   331.1
   293(15)      0.00444     226.3   313.6
   312(16)      0.00391     226.3   297.4
   286(15)      0.00444     226.2   283.6
   285(15)      0.00444     226.2   272.7
   263(15)      0.00444     226.2   265.2
   232(14)      0.00510     226.1   261.0
   274(15)      0.00444     226.1   260.1
   268(15)      0.00444     226.0   262.2
   249(14)      0.00510     226.0   266.9
   249(14)      0.00510     226.0   273.8
   268(15)      0.00444     225.9   282.3
   283(15)      0.00444     225.9   291.7
   273(15)      0.00444     225.8   301.2
   271(15)      0.00444     225.8   310.1
   306(13)      0.00592     225.8   317.5
   324(16)      0.00391     225.7   322.8
   315(16)      0.00391     225.7   325.7
   328(16)      0.00391     225.6   326.2
   331(16)      0.00391     225.6   324.9
   322(16)      0.00391     225.6   322.5
   337(17)      0.003460    225.5   319.8
   340(17)      0.003460    225.5   317.3
   321(16)      0.00391     225.4   315.5
   333(16)      0.00391     225.4   314.5
   334(16)      0.00391     225.4   314.0
   310(16)      0.00391     225.3   313.8
   333(16)      0.00391     225.3   313.2
   308(16)      0.00391     225.3   311.8
   304(16)      0.00391     225.2   309.1
   293(15)      0.00444     225.2   304.8
   302(16)      0.00391     225.1   298.8
   284(15)      0.00444     225.1   291.5
   287(15)      0.00444     225.1   283.3
   307(16)      0.00391     225.0   274.8
   280(15)      0.00444     225.0   266.4
   269(15)      0.00444     224.9   258.6
   266(15)      0.00444     224.9   251.7
   251(14)      0.00510     224.9   245.9
   244(14)      0.00510     224.8   241.1
   229(14)      0.00510     224.8   237.4
   249(14)      0.00510     224.7   234.6
   250(14)      0.00510     224.7   232.6
   235(14)      0.00510     224.7   231.2
   245(14)      0.00510     224.6   230.5
   251(14)      0.00510     224.6   230.1
   238(14)      0.00510     224.5   230.2
   248(14)      0.00510     224.5   230.6
   230(14)      0.00510     224.5   231.4
   237(14)      0.00510     224.4   232.5
   231(14)      0.00510     224.4   234.1
   233(14)      0.00510     224.3   235.9
   242(14)      0.00510     224.3   238.0
   240(14)      0.00510     224.3   240.3
   261(15)      0.00444     224.2   242.7
   258(14)      0.00510     224.2   245.0
   263(15)      0.00444     224.2   247.1
   263(15)      0.00444     224.1   248.6
   266(15)      0.00444     224.1   249.6
   258(14)      0.00510     224.0   249.9
   247(14)      0.00510     224.0   249.5
   248(14)      0.00510     224.0   248.6
   252(14)      0.00510     223.9   247.6
   256(14)      0.00510     223.9   246.6
   267(15)      0.00444     223.9   246.2
   266(15)      0.00444     223.8   246.7
   265(15)      0.00444     223.8   248.7
   282(15)      0.00444     223.7   252.5
   289(15)      0.00444     223.7   258.6
   276(15)      0.00444     223.7   267.4
   286(15)      0.00444     223.6   279.2
   289(15)      0.00444     223.6   294.1
   309(16)      0.00391     223.5   311.8
   340(17)      0.003460    223.5   332.0
   366(17)      0.003460    223.5   353.7
   372(17)      0.003460    223.4   375.7
   385(18)      0.003086    223.4   396.5
   389(18)      0.003086    223.4   414.5
   395(18)      0.003086    223.3   428.1
   432(19)      0.002770    223.3   435.7
   440(19)      0.002770    223.3   436.5
   421(18)      0.003086    223.2   430.5
   454(19)      0.002770    223.2   418.4
   406(18)      0.003086    223.1   401.7
   383(18)      0.003086    223.1   382.0
   364(17)      0.003460    223.1   360.7
   361(17)      0.003460    223.0   339.6
   332(16)      0.00391     223.0   319.7
   294(15)      0.00444     223.0   302.0
   280(15)      0.00444     222.9   287.0
   277(15)      0.00444     222.9   274.8
   241(14)      0.00510     222.8   265.3
   264(15)      0.00444     222.8   258.3
   248(14)      0.00510     222.8   253.3
   268(15)      0.00444     222.7   249.8
   259(15)      0.00444     222.7   247.3
   248(14)      0.00510     222.7   245.5
   247(14)      0.00510     222.6   243.9
   248(14)      0.00510     222.6   242.5
   246(14)      0.00510     222.6   241.2
   245(14)      0.00510     222.5   240.0
   247(14)      0.00510     222.5   239.1
   217(13)      0.00592     222.5   238.4
   223(13)      0.00592     222.4   238.2
   229(14)      0.00510     222.4   238.4
   220(13)      0.00592     222.4   239.3
   239(14)      0.00510     222.3   240.6
   251(14)      0.00510     222.3   242.3
   246(14)      0.00510     222.2   244.3
   253(14)      0.00510     222.2   246.5
   249(14)      0.00510     222.2   248.5
   225(14)      0.00510     222.1   250.2
   207(13)      0.00592     222.1   251.3
   249(14)      0.00510     222.1   251.9
   254(14)      0.00510     222.0   251.7
   258(20)      0.002500    222.0   251.0
   254(14)      0.00510     222.0   249.9
   249(14)      0.00510     221.9   248.6
   252(14)      0.00510     221.9   247.5
   256(14)      0.00510     221.9   246.7
   233(13)      0.00592     221.8   246.4
   221(13)      0.00592     221.8   246.6
   227(13)      0.00592     221.8   247.4
   218(13)      0.00592     221.7   248.7
   248(14)      0.00510     221.7   250.4
   251(14)      0.00510     221.7   252.2
   244(14)      0.00510     221.6   253.9
   233(13)      0.00592     221.6   255.3
   248(14)      0.00510     221.6   256.2
   263(14)      0.00510     221.5   256.3
   241(14)      0.00510     221.5   255.6
   248(14)      0.00510     221.5   254.0
   266(14)      0.00510     221.5   251.7
   255(14)      0.00510     221.4   248.9
   243(14)      0.00510     221.4   245.6
   250(14)      0.00510     221.4   242.3
   238(13)      0.00592     221.3   239.1
   233(13)      0.00592     221.3   236.0
   252(14)      0.00510     221.3   233.3
   219(13)      0.00592     221.2   230.9
   240(14)      0.00510     221.2   228.9
   225(13)      0.00592     221.2   227.4
   238(13)      0.00592     221.1   226.1
   197(12)      0.00694     221.1   225.2
   223(13)      0.00592     221.1   224.6
   219(13)      0.00592     221.0   224.1
   231(13)      0.00592     221.0   223.8
   231(13)      0.00592     221.0   223.7
   218(13)      0.00592     221.0   223.6
   214(13)      0.00592     220.9   223.7
   200(12)      0.00694     220.9   223.8
   225(13)      0.00592     220.9   223.9
   223(13)      0.00592     220.8   224.1
   222(13)      0.00592     220.8   224.3
   220(13)      0.00592     220.8   224.5
   198(12)      0.00694     220.8   224.8
   242(14)      0.00510     220.7   225.0
   218(13)      0.00592     220.7   225.2
   216(13)      0.00592     220.7   225.3
   229(13)      0.00592     220.6   225.5
   228(13)      0.00592     220.6   225.7
   226(13)      0.00592     220.6   225.8
   224(13)      0.00592     220.6   226.1
   233(13)      0.00592     220.5   226.5
   230(13)      0.00592     220.5   227.2
   239(14)      0.00510     220.5   228.1
   241(14)      0.00510     220.4   229.5
   219(13)      0.00592     220.4   231.6
   250(14)      0.00510     220.4   234.6
   218(13)      0.00592     220.4   238.6
   255(14)      0.00510     220.3   243.8
   256(14)      0.00510     220.3   250.5
   249(14)      0.00510     220.3   258.7
   292(15)      0.00444     220.3   268.6
   279(15)      0.00444     220.2   280.1
   292(15)      0.00444     220.2   292.9
   308(15)      0.00444     220.2   306.9
   318(16)      0.00391     220.1   321.4
   343(16)      0.00391     220.1   336.0
   371(17)      0.003460    220.1   349.8
   368(17)      0.003460    220.1   362.1
   404(18)      0.003086    220.0   372.4
   377(17)      0.003460    220.0   379.8
   412(18)      0.003086    220.0   384.2
   402(18)      0.003086    220.0   385.2
   396(17)      0.003460    219.9   383.2
   402(18)      0.003086    219.9   378.3
   386(17)      0.003460    219.9   371.2
   347(16)      0.00391     219.9   362.5
   324(16)      0.00391     219.8   352.8
   322(16)      0.00391     219.8   342.4
   332(16)      0.00391     219.8   331.6
   288(15)      0.00444     219.8   320.6
   286(15)      0.00444     219.8   309.6
   296(15)      0.00444     219.7   298.9
   312(15)      0.00444     219.7   288.5
   260(14)      0.00510     219.7   278.7
   274(14)      0.00510     219.7   269.6
   242(14)      0.00510     219.6   261.3
   262(14)      0.00510     219.6   254.0
   261(14)      0.00510     219.6   247.6
   259(14)      0.00510     219.6   242.2
   269(14)      0.00510     219.5   237.7
   255(14)      0.00510     219.5   234.0
   227(13)      0.00592     219.5   231.1
   223(13)      0.00592     219.5   228.9
   234(13)      0.00592     219.5   227.2
   248(14)      0.00510     219.4   225.9
   231(13)      0.00592     219.4   225.0
   218(13)      0.00592     219.4   224.4
   216(13)      0.00592     219.4   224.0
   230(13)      0.00592     219.4   223.8
   226(13)      0.00592     219.3   223.7
   255(14)      0.00510     219.3   223.7
   242(14)      0.00510     219.3   223.8
   242(14)      0.00510     219.3   224.1
   248(14)      0.00510     219.3   224.6
   243(14)      0.00510     219.2   225.3
   255(14)      0.00510     219.2   226.4
   259(14)      0.00510     219.2   227.8
   243(14)      0.00510     219.2   229.7
   250(14)      0.00510     219.2   232.2
   262(14)      0.00510     219.1   235.5
   243(14)      0.00510     219.1   239.5
   239(14)      0.00510     219.1   244.3
   271(14)      0.00510     219.1   250.0
   249(14)      0.00510     219.1   256.6
   299(15)      0.00444     219.0   264.0
   267(14)      0.00510     219.0   272.0
   307(15)      0.00444     219.0   280.5
   278(15)      0.00444     219.0   289.3
   294(15)      0.00444     219.0   298.1
   310(15)      0.00444     219.0   306.7
   311(16)      0.00391     218.9   314.7
   310(15)      0.00444     218.9   322.1
   324(16)      0.00391     218.9   328.6
   350(16)      0.00391     218.9   334.3
   311(16)      0.00391     218.9   339.0
   339(16)      0.00391     218.9   342.7
   346(16)      0.00391     218.8   345.2
   343(16)      0.00391     218.8   346.5
   333(16)      0.00391     218.8   346.2
   368(17)      0.003460    218.8   344.5
   352(17)      0.003460    218.8   341.4
   347(16)      0.00391     218.8   337.0
   322(16)      0.00391     218.8   331.7
   332(16)      0.00391     218.7   325.8
   357(17)      0.003460    218.7   319.8
   302(15)      0.00444     218.7   314.0
   312(16)      0.00391     218.7   309.0
   324(16)      0.00391     218.7   304.9
   288(15)      0.00444     218.7   301.9
   308(15)      0.00444     218.7   300.0
   317(16)      0.00391     218.6   299.0
   305(15)      0.00444     218.6   298.8
   299(15)      0.00444     218.6   298.9
   266(14)      0.00510     218.6   298.9
   317(16)      0.00391     218.6   298.5
   270(14)      0.00510     218.6   297.3
   292(15)      0.00444     218.6   295.1
   298(15)      0.00444     218.5   291.8
   303(15)      0.00444     218.5   287.7
   305(15)      0.00444     218.5   282.9
   283(15)      0.00444     218.5   277.5
   264(14)      0.00510     218.5   272.0
   284(15)      0.00444     218.5   266.5
   249(14)      0.00510     218.5   261.1
   232(13)      0.00592     218.5   256.1
   252(14)      0.00510     218.5   251.6
   230(13)      0.00592     218.4   247.6
   256(14)      0.00510     218.4   244.1
   248(14)      0.00510     218.4   241.3
   247(14)      0.00510     218.4   239.0
   201(12)      0.00694     218.4   237.2
   234(13)      0.00592     218.4   235.9
   219(13)      0.00592     218.4   235.1
   257(14)      0.00510     218.4   234.9
   219(13)      0.00592     218.4   235.3
   236(14)      0.00510     218.4   236.4
   212(13)      0.00592     218.3   238.2
   232(13)      0.00592     218.3   240.8
   251(14)      0.00510     218.3   244.3
   260(14)      0.00510     218.3   248.8
   254(14)      0.00510     218.3   254.1
   266(14)      0.00510     218.3   260.2
   275(15)      0.00444     218.3   267.0
   262(14)      0.00510     218.3   274.2
   289(15)      0.00444     218.3   281.6
   299(15)      0.00444     218.3   288.7
   313(16)      0.00391     218.3   295.2
   285(15)      0.00444     218.3   300.9
   303(15)      0.00444     218.3   305.1
   308(15)      0.00444     218.2   307.5
   302(15)      0.00444     218.2   308.2
   307(15)      0.00444     218.2   306.9
   322(16)      0.00391     218.2   303.8
   289(15)      0.00444     218.2   299.1
   313(16)      0.00391     218.2   293.1
   270(14)      0.00510     218.2   286.1
   295(15)      0.00444     218.2   278.6
   284(15)      0.00444     218.2   271.0
   261(14)      0.00510     218.2   263.5
   235(13)      0.00592     218.2   256.5
   267(14)      0.00510     218.2   250.2
   247(14)      0.00510     218.2   244.6
   218(13)      0.00592     218.2   239.8
   219(13)      0.00592     218.2   235.9
   210(13)      0.00592     218.2   232.7
   226(13)      0.00592     218.2   230.3
   218(13)      0.00592     218.2   228.5
   228(13)      0.00592     218.2   227.2
   233(13)      0.00592     218.2   226.5
   225(13)      0.00592     218.2   226.2
   209(13)      0.00592     218.2   226.3
   209(13)      0.00592     218.2   226.7
   216(13)      0.00592     218.2   227.5
   229(14)      0.00510     218.1   228.6
   236(14)      0.00510     218.1   230.1
   223(14)      0.00510     218.1   231.9
   243(14)      0.00510     218.1   234.1
   237(14)      0.00510     218.1   236.5
   230(14)      0.00510     218.1   239.3
   241(14)      0.00510     218.1   242.4
   232(14)      0.00510     218.1   245.7
   259(15)      0.00444     218.1   249.1
   263(15)      0.00444     218.1   252.8
   256(15)      0.00444     218.1   256.6
   238(14)      0.00510     218.1   260.5
   292(16)      0.00391     218.1   264.6
   248(14)      0.00510     218.1   268.9
   249(14)      0.00510     218.1   273.5
   255(15)      0.00444     218.1   278.5
   285(15)      0.00444     218.1   283.8
   261(15)      0.00444     218.1   289.4
   292(16)      0.00391     218.1   295.3
   303(16)      0.00391     218.1   301.2
   316(16)      0.00391     218.1   306.9
   317(16)      0.00391     218.1   312.0
   324(16)      0.00391     218.1   316.1
   315(16)      0.00391     218.2   319.0
   310(16)      0.00391     218.2   320.3
   321(16)      0.00391     218.2   319.9
   327(16)      0.00391     218.2   317.7
   321(16)      0.00391     218.2   313.9
   292(16)      0.00391     218.2   308.8
   300(16)      0.00391     218.2   302.7
   292(16)      0.00391     218.2   296.0
   288(15)      0.00444     218.2   289.1
   310(16)      0.00391     218.2   282.3
   297(16)      0.00391     218.2   275.9
   282(15)      0.00444     218.2   270.2
   255(15)      0.00444     218.2   265.5
   260(15)      0.00444     218.2   261.9
   263(15)      0.00444     218.2   259.5
   252(14)      0.00510     218.2   258.5
   253(14)      0.00510     218.2   258.6
   253(14)      0.00510     218.2   260.0
   277(15)      0.00444     218.2   262.4
   255(15)      0.00444     218.2   265.6
   255(15)      0.00444     218.2   269.4
   279(15)      0.00444     218.2   273.4
   259(15)      0.00444     218.2   277.5
   275(15)      0.00444     218.2   281.2
   252(14)      0.00510     218.3   284.2
   268(15)      0.00444     218.3   286.3
   271(15)      0.00444     218.3   287.4
   277(15)      0.00444     218.3   287.2
   294(16)      0.00391     218.3   286.0
   280(15)      0.00444     218.3   283.8
   273(15)      0.00444     218.3   280.9
   284(15)      0.00444     218.3   277.5
   243(14)      0.00510     218.3   274.1
   242(14)      0.00510     218.3   270.7
   268(15)      0.00444     218.3   267.6
   266(15)      0.00444     218.3   265.0
   274(15)      0.00444     218.3   263.0
   249(14)      0.00510     218.4   261.5
   248(14)      0.00510     218.4   260.5
   271(15)      0.00444     218.4   260.0
   262(15)      0.00444     218.4   260.0
   266(15)      0.00444     218.4   260.1
   248(14)      0.00510     218.4   260.4
   263(15)      0.00444     218.4   260.9
   284(15)      0.00444     218.4   261.5
   279(15)      0.00444     218.4   262.2
   253(14)      0.00510     218.4   263.2
   268(15)      0.00444     218.4   264.6
   283(15)      0.00444     218.5   266.5
   274(15)      0.00444     218.5   269.0
   268(15)      0.00444     218.5   272.4
   273(15)      0.00444     218.5   276.6
   295(16)      0.00391     218.5   281.9
   303(16)      0.00391     218.5   288.3
   292(16)      0.00391     218.5   295.8
   317(16)      0.00391     218.5   304.5
   307(16)      0.00391     218.5   314.4
   363(17)      0.003460    218.6   325.3
   349(17)      0.003460    218.6   337.2
   345(17)      0.003460    218.6   349.8
   378(18)      0.003086    218.6   362.8
   397(18)      0.003086    218.6   375.8
   380(18)      0.003086    218.6   388.2
   401(18)      0.003086    218.6   399.5
   407(18)      0.003086    218.6   409.0
   418(19)      0.002770    218.7   416.0
   404(18)      0.003086    218.7   420.0
   419(19)      0.002770    218.7   420.5
   441(19)      0.002770    218.7   417.3
   445(19)      0.002770    218.7   410.5
   423(19)      0.002770    218.7   400.5
   417(19)      0.002770    218.7   387.9
   405(18)      0.003086    218.8   373.3
   360(17)      0.003460    218.8   357.5
   349(17)      0.003460    218.8   341.2
   352(17)      0.003460    218.8   325.0
   337(17)      0.003460    218.8   309.5
   333(17)      0.003460    218.8   295.1
   329(17)      0.003460    218.8   282.0
   294(16)      0.00391     218.9   270.5
   285(15)      0.00444     218.9   260.6
   254(15)      0.00444     218.9   252.2
   260(15)      0.00444     218.9   245.4
   264(15)      0.00444     218.9   239.9
   251(15)      0.00444     218.9   235.6
   248(14)      0.00510     219.0   232.2
   261(15)      0.00444     219.0   229.7
   253(15)      0.00444     219.0   227.8
   229(14)      0.00510     219.0   226.3
   240(14)      0.00510     219.0   225.3
   227(14)      0.00510     219.0   224.6
   234(14)      0.00510     219.1   224.1
   245(14)      0.00510     219.1   223.8
   247(14)      0.00510     219.1   223.5
   237(14)      0.00510     219.1   223.4
   230(14)      0.00510     219.1   223.3
   242(14)      0.00510     219.1   223.4
   237(14)      0.00510     219.2   223.5
   241(14)      0.00510     219.2   223.7
   232(14)      0.00510     219.2   224.0
   222(14)      0.00510     219.2   224.5
   227(14)      0.00510     219.2   225.1
   253(15)      0.00444     219.3   225.9
   232(14)      0.00510     219.3   226.8
   242(14)      0.00510     219.3   228.0
   276(15)      0.00444     219.3   229.4
   238(14)      0.00510     219.3   230.9
   232(14)      0.00510     219.4   232.6
   259(15)      0.00444     219.4   234.6
   233(14)      0.00510     219.4   236.6
   223(14)      0.00510     219.4   238.7
   234(14)      0.00510     219.4   240.8
   253(15)      0.00444     219.5   242.7
   246(14)      0.00510     219.5   244.6
   248(14)      0.00510     219.5   246.1
   241(14)      0.00510     219.5   247.3
   254(15)      0.00444     219.5   248.0
   258(15)      0.00444     219.6   248.3
   246(14)      0.00510     219.6   248.1
   246(14)      0.00510     219.6   247.5
   247(14)      0.00510     219.6   246.4
   265(15)      0.00444     219.6   245.1
   264(15)      0.00444     219.7   243.6
   249(14)      0.00510     219.7   242.0
   238(14)      0.00510     219.7   240.4
   241(14)      0.00510     219.7   238.9
   251(15)      0.00444     219.8   237.6
   238(14)      0.00510     219.8   236.5
   245(14)      0.00510     219.8   235.7
   257(15)      0.00444     219.8   235.3
   262(15)      0.00444     219.8   235.2
   243(14)      0.00510     219.9   235.4
   240(14)      0.00510     219.9   235.9
   247(14)      0.00510     219.9   236.7
   224(14)      0.00510     219.9   237.7
   229(14)      0.00510     220.0   238.9
   249(14)      0.00510     220.0   240.2
   235(14)      0.00510     220.0   241.5
   263(15)      0.00444     220.0   242.8
   258(15)      0.00444     220.1   244.1
   258(15)      0.00444     220.1   245.2
   257(15)      0.00444     220.1   246.1
   262(15)      0.00444     220.1   246.8
   270(15)      0.00444     220.1   247.4
   246(14)      0.00510     220.2   247.8
   257(15)      0.00444     220.2   248.1
   245(14)      0.00510     220.2   248.3
   251(15)      0.00444     220.2   248.7
   272(15)      0.00444     220.3   249.2
   243(14)      0.00510     220.3   250.0
   265(15)      0.00444     220.3   251.1
   259(15)      0.00444     220.3   252.8
   240(14)      0.00510     220.4   255.2
   272(15)      0.00444     220.4   258.3
   270(15)      0.00444     220.4   262.2
   264(15)      0.00444     220.4   267.0
   278(15)      0.00444     220.5   272.8
   271(15)      0.00444     220.5   279.3
   281(15)      0.00444     220.5   286.6
   303(16)      0.00391     220.6   294.5
   311(16)      0.00391     220.6   302.9
   298(16)      0.00391     220.6   311.3
   351(17)      0.003460    220.6   319.5
   340(17)      0.003460    220.7   327.2
   343(17)      0.003460    220.7   334.0
   326(17)      0.003460    220.7   339.6
   349(17)      0.003460    220.7   343.7
   345(17)      0.003460    220.8   346.1
   351(17)      0.003460    220.8   346.7
   344(17)      0.003460    220.8   345.5
   376(18)      0.003086    220.8   342.9
   370(18)      0.003086    220.9   339.0
   345(17)      0.003460    220.9   334.3
   337(17)      0.003460    220.9   329.1
   325(17)      0.003460    221.0   323.7
   337(17)      0.003460    221.0   318.6
   309(16)      0.00391     221.0   313.9
   345(16)      0.00391     221.0   310.0
   298(15)      0.00444     221.1   306.9
   309(16)      0.00391     221.1   304.7
   337(16)      0.00391     221.1   303.5
   305(15)      0.00444     221.1   303.2
   317(16)      0.00391     221.2   303.6
   299(15)      0.00444     221.2   304.4
   314(16)      0.00391     221.2   305.7
   296(15)      0.00444     221.3   306.9
   275(15)      0.00444     221.3   307.9
   284(15)      0.00444     221.3   308.3
   306(15)      0.00444     221.3   308.0
   285(15)      0.00444     221.4   306.9
   293(15)      0.00444     221.4   304.9
   305(15)      0.00444     221.4   302.0
   300(15)      0.00444     221.5   298.5
   296(15)      0.00444     221.5   294.4
   314(16)      0.00391     221.5   290.1
   297(15)      0.00444     221.5   285.6
   278(15)      0.00444     221.6   281.3
   293(15)      0.00444     221.6   277.4
   288(15)      0.00444     221.6   274.0
   282(15)      0.00444     221.7   271.3
   277(15)      0.00444     221.7   269.5
   276(15)      0.00444     221.7   268.6
   260(14)      0.00510     221.8   268.7
   268(14)      0.00510     221.8   269.8
   306(15)      0.00444     221.8   272.1
   287(15)      0.00444     221.8   275.3
   303(15)      0.00444     221.9   279.6
   278(15)      0.00444     221.9   284.7
   311(16)      0.00391     221.9   290.6
   299(15)      0.00444     222.0   297.1
   303(15)      0.00444     222.0   304.1
   336(16)      0.00391     222.0   311.4
   299(15)      0.00444     222.1   318.7
   327(16)      0.00391     222.1   325.7
   350(17)      0.003460    222.1   332.2
   357(17)      0.003460    222.1   337.8
   334(16)      0.00391     222.2   342.2
   337(16)      0.00391     222.2   345.3
   359(17)      0.003460    222.2   346.8
   324(16)      0.00391     222.3   346.7
   363(17)      0.003460    222.3   345.0
   331(16)      0.00391     222.3   341.8
   328(16)      0.00391     222.4   337.3
   338(16)      0.00391     222.4   331.7
   323(16)      0.00391     222.4   325.5
   324(16)      0.00391     222.5   318.8
   315(16)      0.00391     222.5   312.0
   295(15)      0.00444     222.5   305.5
   301(15)      0.00444     222.5   299.5
   312(16)      0.00391     222.6   294.3
   305(15)      0.00444     222.6   290.1
   281(15)      0.00444     222.6   287.0
   280(15)      0.00444     222.7   285.2
   315(16)      0.00391     222.7   284.7
   305(15)      0.00444     222.7   285.6
   299(15)      0.00444     222.8   287.7
   284(15)      0.00444     222.8   291.1
   323(16)      0.00391     222.8   295.5
   320(16)      0.00391     222.9   301.0
   313(16)      0.00391     222.9   307.2
   297(15)      0.00444     222.9   314.0
   302(15)      0.00444     223.0   321.1
   320(16)      0.00391     223.0   328.5
   325(16)      0.00391     223.0   335.7
   331(16)      0.00391     223.1   342.8
   356(17)      0.003460    223.1   349.4
   346(16)      0.00391     223.1   355.4
   354(17)      0.003460    223.1   360.8
   361(17)      0.003460    223.2   365.3
   338(16)      0.00391     223.2   368.8
   339(16)      0.00391     223.2   371.2
   363(17)      0.003460    223.3   372.5
   360(17)      0.003460    223.3   372.5
   357(17)      0.003460    223.3   371.4
   370(17)      0.003460    223.4   369.1
   374(17)      0.003460    223.4   365.8
   377(17)      0.003460    223.4   361.6
   391(17)      0.003460    223.5   356.7
   324(16)      0.00391     223.5   351.1
   357(17)      0.003460    223.5   345.1
   344(16)      0.00391     223.6   338.8
   353(17)      0.003460    223.6   332.3
   328(16)      0.00391     223.6   325.8
   329(16)      0.00391     223.7   319.6
   319(16)      0.00391     223.7   313.7
   303(15)      0.00444     223.7   308.3
   303(15)      0.00444     223.8   303.6
   289(15)      0.00444     223.8   299.6
   303(15)      0.00444     223.8   296.5
   301(15)      0.00444     223.9   294.2
   295(15)      0.00444     223.9   292.8
   290(15)      0.00444     223.9   292.2
   275(15)      0.00444     224.0   292.3
   287(15)      0.00444     224.0   293.1
   309(16)      0.00391     224.0   294.4
   293(15)      0.00444     224.1   296.1
   267(20)      0.002500    224.1   298.0
   308(16)      0.00391     224.1   299.9
   285(15)      0.00444     224.2   301.8
   294(15)      0.00444     224.2   303.4
   285(15)      0.00444     224.2   304.6
   292(15)      0.00444     224.2   305.5
   305(16)      0.00391     224.3   305.8
   297(15)      0.00444     224.3   305.5
   296(15)      0.00444     224.3   304.5
   326(16)      0.00391     224.4   302.9
   298(15)      0.00444     224.4   300.7
   269(15)      0.00444     224.4   297.9
   294(15)      0.00444     224.5   294.5
   292(15)      0.00444     224.5   290.7
   300(15)      0.00444     224.5   286.7
   288(15)      0.00444     224.6   282.5
   268(15)      0.00444     224.6   278.3
   269(15)      0.00444     224.6   274.3
   265(15)      0.00444     224.7   270.3
   252(14)      0.00510     224.7   266.8
   254(14)      0.00510     224.7   263.6
   262(14)      0.00510     224.8   260.8
   254(14)      0.00510     224.8   258.5
   242(14)      0.00510     224.8   256.5
   241(14)      0.00510     224.9   254.9
   251(14)      0.00510     224.9   253.7
   235(14)      0.00510     224.9   252.8
   251(14)      0.00510     225.0   252.1
   253(14)      0.00510     225.0   251.5
   260(14)      0.00510     225.0   251.1
   251(14)      0.00510     225.1   250.6
   245(14)      0.00510     225.1   250.1
   249(14)      0.00510     225.1   249.6
   251(14)      0.00510     225.2   248.9
   239(14)      0.00510     225.2   248.1
   245(14)      0.00510     225.2   247.3
   231(14)      0.00510     225.3   246.3
   239(14)      0.00510     225.3   245.4
   256(14)      0.00510     225.3   244.4
   251(14)      0.00510     225.4   243.4
   238(14)      0.00510     225.4   242.6
   239(14)      0.00510     225.4   241.9
   234(14)      0.00510     225.5   241.4
   248(14)      0.00510     225.5   241.0
   258(14)      0.00510     225.5   240.9
   253(14)      0.00510     225.6   241.1
   245(14)      0.00510     225.6   241.6
   242(14)      0.00510     225.6   242.3
   230(14)      0.00510     225.6   243.5
   228(14)      0.00510     225.7   245.0
   241(14)      0.00510     225.7   246.9
   238(14)      0.00510     225.7   249.1
   265(15)      0.00444     225.8   251.8
   265(15)      0.00444     225.8   254.9
   266(15)      0.00444     225.8   258.4
   270(15)      0.00444     225.9   262.2
   276(15)      0.00444     225.9   266.5
   267(15)      0.00444     225.9   271.0
   280(15)      0.00444     226.0   275.9
   284(15)      0.00444     226.0   281.1
   302(15)      0.00444     226.0   286.5
   302(16)      0.00391     226.1   292.1
   305(16)      0.00391     226.1   297.7
   310(16)      0.00391     226.1   303.3
   315(16)      0.00391     226.2   308.9
   301(15)      0.00444     226.2   314.3
   297(15)      0.00444     226.2   319.5
   326(16)      0.00391     226.3   324.5
   315(16)      0.00391     226.3   329.1
   320(16)      0.00391     226.3   333.3
   312(16)      0.00391     226.4   337.2
   331(16)      0.00391     226.4   340.7
   348(17)      0.003460    226.4   343.8
   339(16)      0.00391     226.4   346.4
   346(17)      0.003460    226.5   348.5
   343(16)      0.00391     226.5   350.0
   327(16)      0.00391     226.5   350.8
   332(16)      0.00391     226.6   350.9
   336(16)      0.00391     226.6   350.2
   325(16)      0.00391     226.6   348.7
   327(16)      0.00391     226.7   346.3
   357(17)      0.003460    226.7   343.2
   332(16)      0.00391     226.7   339.4
   335(16)      0.00391     226.8   335.0
   326(16)      0.00391     226.8   330.2
   309(16)      0.00391     226.8   325.2
   304(16)      0.00391     226.9   320.0
   311(16)      0.00391     226.9   314.9
   298(15)      0.00444     226.9   310.0
   283(15)      0.00444     226.9   305.3
   291(15)      0.00444     227.0   301.0
   296(15)      0.00444     227.0   297.2
   294(15)      0.00444     227.0   293.8
   287(15)      0.00444     227.1   290.8
   273(15)      0.00444     227.1   288.4
   264(14)      0.00510     227.1   286.4
   276(15)      0.00444     227.2   284.8
   277(15)      0.00444     227.2   283.7
   285(15)      0.00444     227.2   283.0
   280(15)      0.00444     227.2   282.6
   267(15)      0.00444     227.3   282.7
   280(15)      0.00444     227.3   283.1
   299(16)      0.00391     227.3   283.9
   305(16)      0.00391     227.4   285.1
   286(15)      0.00444     227.4   286.8
   278(15)      0.00444     227.4   288.8
   286(15)      0.00444     227.5   291.3
   279(15)      0.00444     227.5   294.1
   297(15)      0.00444     227.5   297.3
   305(16)      0.00391     227.5   300.7
   305(16)      0.00391     227.6   304.4
   312(16)      0.00391     227.6   308.2
   323(16)      0.00391     227.6   312.0
   310(16)      0.00391     227.7   315.8
   336(16)      0.00391     227.7   319.2
   327(16)      0.00391     227.7   322.5
   313(16)      0.00391     227.7   325.5
   323(16)      0.00391     227.8   328.0
   341(17)      0.003460    227.8   330.1
   334(16)      0.00391     227.8   331.6
   325(16)      0.00391     227.9   332.7
   334(16)      0.00391     227.9   333.2
   343(17)      0.003460    227.9   333.1
   335(16)      0.00391     228.0   332.6
   330(16)      0.00391     228.0   331.6
   335(16)      0.00391     228.0   330.2
   303(16)      0.00391     228.0   328.3
   301(16)      0.00391     228.1   326.2
   295(15)      0.00444     228.1   324.0
   315(16)      0.00391     228.1   321.5
   331(16)      0.00391     228.1   319.0
   330(16)      0.00391     228.2   316.4
   303(16)      0.00391     228.2   313.9
   290(15)      0.00444     228.2   311.4
   295(15)      0.00444     228.3   309.0
   299(16)      0.00391     228.3   306.7
   313(16)      0.00391     228.3   304.4
   305(16)      0.00391     228.3   302.2
   298(16)      0.00391     228.4   300.0
   291(15)      0.00444     228.4   298.0
   303(16)      0.00391     228.4   296.1
   306(16)      0.00391     228.5   294.3
   288(15)      0.00444     228.5   292.8
   298(15)      0.00444     228.5   291.5
   291(15)      0.00444     228.5   290.3
   293(15)      0.00444     228.6   289.4
   286(15)      0.00444     228.6   288.7
   295(15)      0.00444     228.6   288.2
   294(15)      0.00444     228.6   287.9
   292(15)      0.00444     228.7   287.7
   291(15)      0.00444     228.7   287.6
   288(15)      0.00444     228.7   287.6
   299(16)      0.00391     228.8   287.6
   291(15)      0.00444     228.8   287.5
   294(15)      0.00444     228.8   287.3
   271(15)      0.00444     228.8   286.9
   279(15)      0.00444     228.9   286.5
   290(15)      0.00444     228.9   285.8
   281(15)      0.00444     228.9   285.0
   288(15)      0.00444     228.9   284.1
   286(15)      0.00444     229.0   283.2
   292(15)      0.00444     229.0   282.2
   306(16)      0.00391     229.0   281.2
   284(15)      0.00444     229.0   280.3
   288(15)      0.00444     229.1   279.6
   289(15)      0.00444     229.1   278.9
   294(15)      0.00444     229.1   278.4
   280(15)      0.00444     229.1   278.1
   285(15)      0.00444     229.2   277.9
   276(15)      0.00444     229.2   277.9
   280(15)      0.00444     229.2   277.9
   289(15)      0.00444     229.2   278.0
   298(16)      0.00391     229.3   278.2
   291(15)      0.00444     229.3   278.2
   285(15)      0.00444     229.3   278.2
   292(15)      0.00444     229.3   278.0
   271(15)      0.00444     229.4   277.7
   263(15)      0.00444     229.4   277.0
   281(15)      0.00444     229.4   276.2
   279(15)      0.00444     229.4   275.1
   274(15)      0.00444     229.5   273.8
   272(15)      0.00444     229.5   272.2
   280(15)      0.00444     229.5   270.5
   253(14)      0.00510     229.5   268.6
   253(14)      0.00510     229.6   266.7
   259(15)      0.00444     229.6   264.8
   264(15)      0.00444     229.6   262.9
   273(15)      0.00444     229.6   261.1
   247(14)      0.00510     229.7   259.5
   251(14)      0.00510     229.7   258.2
   264(15)      0.00444     229.7   257.2
   253(14)      0.00510     229.7   256.4
   268(15)      0.00444     229.7   256.1
   278(15)      0.00444     229.8   256.2
   267(15)      0.00444     229.8   256.7
   250(14)      0.00510     229.8   257.7
   258(14)      0.00510     229.8   259.1
   260(15)      0.00444     229.9   261.0
   254(14)      0.00510     229.9   263.4
   271(15)      0.00444     229.9   266.2
   274(15)      0.00444     229.9   269.4
   284(16)      0.00391     230.0   273.1
   279(16)      0.00391     230.0   277.0
   285(16)      0.00391     230.0   281.3
   285(16)      0.00391     230.0   285.8
   287(16)      0.00391     230.0   290.5
   298(16)      0.00391     230.1   295.2
   298(16)      0.00391     230.1   300.0
   297(16)      0.00391     230.1   304.7
   306(16)      0.00391     230.1   309.2
   301(16)      0.00391     230.2   313.5
   289(16)      0.00391     230.2   317.5
   309(16)      0.00391     230.2   321.1
   332(17)      0.003460    230.2   324.3
   332(17)      0.003460    230.2   327.0
   304(16)      0.00391     230.3   329.3
   295(16)      0.00391     230.3   331.0
   305(16)      0.00391     230.3   332.3
   325(17)      0.003460    230.3   333.2
   318(17)      0.003460    230.3   333.7
   312(16)      0.00391     230.4   334.0
   313(16)      0.00391     230.4   334.1
   338(17)      0.003460    230.4   334.0
   340(17)      0.003460    230.4   333.7
   311(16)      0.00391     230.4   333.4
   321(17)      0.003460    230.5   332.9
   319(17)      0.003460    230.5   332.3
   323(17)      0.003460    230.5   331.6
   333(17)      0.003460    230.5   330.7
   317(16)      0.00391     230.6   329.6
   322(17)      0.003460    230.6   328.2
   330(17)      0.003460    230.6   326.5
   333(17)      0.003460    230.6   324.4
   308(16)      0.00391     230.6   322.0
   329(17)      0.003460    230.7   319.1
   327(17)      0.003460    230.7   315.8
   319(17)      0.003460    230.7   312.2
   327(17)      0.003460    230.7   308.2
   296(16)      0.00391     230.7   303.9
   280(16)      0.00391     230.7   299.5
   290(16)      0.00391     230.8   294.9
   310(16)      0.00391     230.8   290.2
   294(16)      0.00391     230.8   285.6
   282(16)      0.00391     230.8   281.0
   307(16)      0.00391     230.8   276.6
   295(16)      0.00391     230.9   272.3
   301(16)      0.00391     230.9   268.3
   287(16)      0.00391     230.9   264.5
   274(15)      0.00444     230.9   261.0
   251(15)      0.00444     230.9   257.8
   251(15)      0.00444     231.0   254.9
   232(14)      0.00510     231.0   252.3
   231(14)      0.00510     231.0   250.1
   249(15)      0.00444     231.0   248.1
   264(15)      0.00444     231.0   246.5
   238(14)      0.00510     231.1   245.1
   233(14)      0.00510     231.1   243.9
   245(15)      0.00444     231.1   243.0
   235(14)      0.00510     231.1   242.3
   228(14)      0.00510     231.1   241.8
   256(15)      0.00444     231.1   241.4
   249(15)      0.00444     231.2   241.3
   257(15)      0.00444     231.2   241.3
   253(15)      0.00444     231.2   241.5
   239(14)      0.00510     231.2   241.8
   230(14)      0.00510     231.2   242.3
   247(15)      0.00444     231.3   243.1
   274(15)      0.00444     231.3   244.0
   246(15)      0.00444     231.3   245.1
   254(15)      0.00444     231.3   246.6
   269(15)      0.00444     231.3   248.3
   255(15)      0.00444     231.3   250.4
   262(15)      0.00444     231.4   252.8
   267(15)      0.00444     231.4   255.7
   269(15)      0.00444     231.4   259.0
   268(15)      0.00444     231.4   263.0
   300(16)      0.00391     231.4   267.5
   298(16)      0.00391     231.4   272.7
   284(16)      0.00391     231.5   278.6
   290(16)      0.00391     231.5   285.3
   304(16)      0.00391     231.5   292.8
   310(16)      0.00391     231.5   301.1
   319(17)      0.003460    231.5   310.3
   325(17)      0.003460    231.5   320.3
   339(17)      0.003460    231.6   331.2
   361(18)      0.003086    231.6   342.9
   340(17)      0.003460    231.6   355.4
   377(18)      0.003086    231.6   368.4
   384(18)      0.003086    231.6   382.1
   407(19)      0.002770    231.6   396.2
   427(19)      0.002770    231.7   410.5
   404(19)      0.002770    231.7   425.0
   422(19)      0.002770    231.7   439.4
   468(20)      0.002500    231.7   453.6
   439(19)      0.002770    231.7   467.2
   491(20)      0.002500    231.7   480.1
   496(20)      0.002500    231.8   492.0
   481(20)      0.002500    231.8   502.8
   481(20)      0.002500    231.8   512.3
   492(20)      0.002500    231.8   520.2
   524(17)      0.003460    231.8   526.4
   521(21)      0.002268    231.8   530.9
   551(22)      0.002066    231.8   533.6
   570(22)      0.002066    231.9   534.5
   548(22)      0.002066    231.9   533.7
   523(21)      0.002268    231.9   531.3
   510(21)      0.002268    231.9   527.4
   519(21)      0.002268    231.9   522.3
   545(22)      0.002066    231.9   516.0
   545(22)      0.002066    232.0   508.9
   516(21)      0.002268    232.0   501.2
   516(21)      0.002268    232.0   492.9
   480(21)      0.002268    232.0   484.4
   499(21)      0.002268    232.0   475.8
   503(21)      0.002268    232.0   467.2
   475(20)      0.002500    232.1   458.8
   477(20)      0.002500    232.1   450.7
   457(20)      0.002500    232.1   442.9
   446(20)      0.002500    232.1   435.6
   429(19)      0.002770    232.1   428.8
   434(20)      0.002500    232.1   422.5
   434(20)      0.002500    232.1   416.8
   424(19)      0.002770    232.2   411.7
   430(19)      0.002770    232.2   407.3
   432(20)      0.002500    232.2   403.5
   416(19)      0.002770    232.2   400.3
   441(20)      0.002500    232.2   397.8
   396(19)      0.002770    232.2   395.7
   382(18)      0.003086    232.2   394.1
   418(19)      0.002770    232.3   392.9
   370(18)      0.003086    232.3   392.0
   384(18)      0.003086    232.3   391.4
   370(18)      0.003086    232.3   390.8
   375(18)      0.003086    232.3   390.1
   397(19)      0.002770    232.3   389.4
   401(19)      0.002770    232.3   388.4
   386(18)      0.003086    232.4   387.1
   376(18)      0.003086    232.4   385.4
   375(18)      0.003086    232.4   383.3
   367(18)      0.003086    232.4   380.7
   371(18)      0.003086    232.4   377.6
   376(18)      0.003086    232.4   374.1
   359(18)      0.003086    232.5   370.2
   363(18)      0.003086    232.5   366.1
   371(18)      0.003086    232.5   361.7
   356(18)      0.003086    232.5   357.3
   354(18)      0.003086    232.5   352.8
   336(17)      0.003460    232.5   348.4
   336(17)      0.003460    232.5   344.2
   378(18)      0.003086    232.6   340.2
   359(18)      0.003086    232.6   336.5
   329(17)      0.003460    232.6   333.1
   312(17)      0.003460    232.6   330.1
   337(17)      0.003460    232.6   327.6
   338(17)      0.003460    232.6   325.4
   333(17)      0.003460    232.6   323.7
   336(17)      0.003460    232.7   322.3
   333(17)      0.003460    232.7   321.3
   328(17)      0.003460    232.7   320.5
   290(16)      0.00391     232.7   320.0
   299(16)      0.00391     232.7   319.6
   305(17)      0.003460    232.7   319.4
   308(17)      0.003460    232.7   319.1
   306(17)      0.003460    232.8   318.7
   292(16)      0.00391     232.8   318.3
   288(16)      0.00391     232.8   317.6
   320(17)      0.003460    232.8   316.6
   319(17)      0.003460    232.8   315.4
   307(17)      0.003460    232.8   313.8
   282(16)      0.00391     232.8   312.0
   280(16)      0.00391     232.9   309.7
   296(16)      0.00391     232.9   307.2
   309(17)      0.003460    232.9   304.5
   244(15)      0.00444     232.9   301.4
   281(16)      0.00391     232.9   298.3
   285(16)      0.00391     232.9   294.9
   280(16)      0.00391     233.0   291.5
   278(16)      0.00391     233.0   288.1
   299(16)      0.00391     233.0   284.6
   275(16)      0.00391     233.0   281.3
   274(16)      0.00391     233.0   278.1
   278(16)      0.00391     233.0   275.1
   287(16)      0.00391     233.0   272.2
   278(16)      0.00391     233.1   269.6
   278(16)      0.00391     233.1   267.3
   251(15)      0.00444     233.1   265.2
   257(15)      0.00444     233.1   263.4
   266(15)      0.00444     233.1   262.0
   254(15)      0.00444     233.1   260.8
   256(15)      0.00444     233.1   260.0
   248(15)      0.00444     233.2   259.5
   251(15)      0.00444     233.2   259.3
   240(15)      0.00444     233.2   259.5
   234(15)      0.00444     233.2   259.9
   273(16)      0.00391     233.2   260.7
   251(15)      0.00444     233.2   261.7
   251(15)      0.00444     233.3   263.1
   287(16)      0.00391     233.3   264.7
   288(16)      0.00391     233.3   266.6
   265(15)      0.00444     233.3   268.8
   266(15)      0.00444     233.3   271.3
   282(15)      0.00444     233.3   274.0
   290(16)      0.00391     233.3   276.9
   261(15)      0.00444     233.4   280.1
   302(16)      0.00391     233.4   283.4
   288(16)      0.00391     233.4   287.0
   264(15)      0.00444     233.4   290.7
   306(16)      0.00391     233.4   294.6
   294(16)      0.00391     233.4   298.5
   279(15)      0.00444     233.5   302.6
   332(17)      0.003460    233.5   306.6
   314(16)      0.00391     233.5   310.7
   334(17)      0.003460    233.5   314.8
   302(16)      0.00391     233.5   318.7
   330(17)      0.003460    233.5   322.5
   346(17)      0.003460    233.6   326.0
   325(16)      0.00391     233.6   329.3
   342(17)      0.003460    233.6   332.2
   321(16)      0.00391     233.6   334.8
   342(17)      0.003460    233.6   336.9
   344(17)      0.003460    233.6   338.5
   347(17)      0.003460    233.7   339.6
   326(16)      0.00391     233.7   340.2
   321(16)      0.00391     233.7   340.2
   338(17)      0.003460    233.7   339.6
   327(17)      0.003460    233.7   338.5
   307(16)      0.00391     233.7   336.8
   325(16)      0.00391     233.8   334.7
   330(17)      0.003460    233.8   332.1
   323(16)      0.00391     233.8   329.2
   303(16)      0.00391     233.8   325.9
   327(17)      0.003460    233.8   322.4
   299(16)      0.00391     233.9   318.7
   302(16)      0.00391     233.9   314.8
   300(16)      0.00391     233.9   311.0
   314(16)      0.00391     233.9   307.1
   303(16)      0.00391     233.9   303.3
   298(16)      0.00391     233.9   299.6
   292(16)      0.00391     234.0   296.0
   287(16)      0.00391     234.0   292.7
   259(15)      0.00444     234.0   289.5
   307(16)      0.00391     234.0   286.6
   273(15)      0.00444     234.0   283.9
   281(15)      0.00444     234.1   281.4
   272(15)      0.00444     234.1   279.2
   283(15)      0.00444     234.1   277.3
   251(15)      0.00444     234.1   275.6
   279(15)      0.00444     234.1   274.1
   249(14)      0.00510     234.2   272.8
   269(15)      0.00444     234.2   271.7
   285(15)      0.00444     234.2   270.8
   274(15)      0.00444     234.2   270.1
   298(16)      0.00391     234.2   269.6
   274(15)      0.00444     234.2   269.2
   250(15)      0.00444     234.3   268.9
   232(14)      0.00510     234.3   268.8
   266(15)      0.00444     234.3   268.8
   263(15)      0.00444     234.3   269.0
   244(14)      0.00510     234.3   269.3
   256(15)      0.00444     234.4   269.7
   270(15)      0.00444     234.4   270.2
   285(15)      0.00444     234.4   270.9
   269(15)      0.00444     234.4   271.7
   276(15)      0.00444     234.5   272.7
   287(15)      0.00444     234.5   273.8
   274(15)      0.00444     234.5   275.1
   310(16)      0.00391     234.5   276.5
   284(15)      0.00444     234.5   278.1
   302(16)      0.00391     234.6   279.9
   253(15)      0.00444     234.6   281.9
   273(15)      0.00444     234.6   284.0
   274(15)      0.00444     234.6   286.3
   296(16)      0.00391     234.6   288.8
   300(16)      0.00391     234.7   291.5
   324(16)      0.00391     234.7   294.4
   332(17)      0.003460    234.7   297.4
   327(17)      0.003460    234.7   300.6
   322(16)      0.00391     234.8   304.0
   340(17)      0.003460    234.8   307.7
   283(15)      0.00444     234.8   311.4
   309(16)      0.00391     234.8   315.3
   317(16)      0.00391     234.8   319.3
   316(16)      0.00391     234.9   323.5
   316(16)      0.00391     234.9   327.7
   342(17)      0.003460    234.9   332.0
   319(16)      0.00391     234.9   336.3
   323(16)      0.00391     235.0   340.5
   307(16)      0.00391     235.0   344.7
   345(17)      0.003460    235.0   348.7
   342(17)      0.003460    235.0   352.6
   390(18)      0.003086    235.1   356.3
   360(17)      0.003460    235.1   359.7
   371(18)      0.003086    235.1   362.9
   385(18)      0.003086    235.1   365.7
   354(17)      0.003460    235.2   368.1
   359(17)      0.003460    235.2   370.1
   364(17)      0.003460    235.2   371.7
   364(17)      0.003460    235.2   372.9
   402(18)      0.003086    235.3   373.5
   362(17)      0.003460    235.3   373.7
   362(25)      0.001600    235.3   373.3
   362(17)      0.003460    235.3   372.5
   372(17)      0.003460    235.4   371.0
   369(17)      0.003460    235.4   369.1
   372(17)      0.003460    235.4   366.6
   348(17)      0.003460    235.4   363.6
   360(17)      0.003460    235.5   360.2
   353(17)      0.003460    235.5   356.4
   357(17)      0.003460    235.5   352.1
   356(17)      0.003460    235.5   347.6
   349(17)      0.003460    235.6   342.8
   315(16)      0.00391     235.6   337.8
   345(17)      0.003460    235.6   332.6
   330(16)      0.00391     235.7   327.3
   336(16)      0.00391     235.7   322.0
   318(16)      0.00391     235.7   316.7
   309(16)      0.00391     235.7   311.4
   301(16)      0.00391     235.8   306.3
   289(15)      0.00444     235.8   301.3
   290(15)      0.00444     235.8   296.4
   313(16)      0.00391     235.9   291.8
   309(16)      0.00391     235.9   287.4
   282(15)      0.00444     235.9   283.2
   269(15)      0.00444     235.9   279.3
   259(15)      0.00444     236.0   275.7
   284(15)      0.00444     236.0   272.3
   287(15)      0.00444     236.0   269.2
   286(15)      0.00444     236.1   266.3
   275(15)      0.00444     236.1   263.7
   262(15)      0.00444     236.1   261.4
   256(15)      0.00444     236.1   259.3
   273(15)      0.00444     236.2   257.5
   251(14)      0.00510     236.2   255.9
   267(15)      0.00444     236.2   254.5
   291(15)      0.00444     236.3   253.3
   254(14)      0.00510     236.3   252.3
   236(14)      0.00510     236.3   251.5
   245(14)      0.00510     236.4   250.8
   240(14)      0.00510     236.4   250.3
   249(14)      0.00510     236.4   249.9
   268(15)      0.00444     236.5   249.7
   272(15)      0.00444     236.5   249.5
   249(14)      0.00510     236.5   249.5
   272(15)      0.00444     236.6   249.5
   261(15)      0.00444     236.6   249.7
   264(15)      0.00444     236.6   249.9
   288(15)      0.00444     236.6   250.3
   260(15)      0.00444     236.7   250.6
   255(14)      0.00510     236.7   251.1
   265(15)      0.00444     236.7   251.6
   242(14)      0.00510     236.8   252.2
   244(14)      0.00510     236.8   252.9
   258(15)      0.00444     236.8   253.6
   262(15)      0.00444     236.9   254.3
   256(14)      0.00510     236.9   255.1
   250(14)      0.00510     236.9   256.0
   258(15)      0.00444     237.0   256.9
   250(14)      0.00510     237.0   257.9
   260(15)      0.00444     237.0   258.9
   267(15)      0.00444     237.1   260.0
   243(14)      0.00510     237.1   261.1
   249(14)      0.00510     237.2   262.3
   259(15)      0.00444     237.2   263.5
   261(15)      0.00444     237.2   264.8
   282(15)      0.00444     237.3   266.1
   276(15)      0.00444     237.3   267.5
   273(15)      0.00444     237.3   269.0
   272(15)      0.00444     237.4   270.5
   284(15)      0.00444     237.4   272.1
   259(15)      0.00444     237.4   273.7
   303(16)      0.00391     237.5   275.5
   322(16)      0.00391     237.5   277.2
   294(15)      0.00444     237.5   279.1
   308(16)      0.00391     237.6   281.0
   288(15)      0.00444     237.6   282.9
   285(15)      0.00444     237.6   284.9
   301(16)      0.00391     237.7   287.0
   286(15)      0.00444     237.7   289.0
   274(15)      0.00444     237.8   291.1
   295(16)      0.00391     237.8   293.3
   310(16)      0.00391     237.8   295.4
   289(15)      0.00444     237.9   297.5
   303(16)      0.00391     237.9   299.6
   292(15)      0.00444     237.9   301.6
   312(16)      0.00391     238.0   303.6
   312(16)      0.00391     238.0   305.6
   303(16)      0.00391     238.1   307.4
   316(16)      0.00391     238.1   309.1
   309(16)      0.00391     238.1   310.7
   307(16)      0.00391     238.2   312.2
   338(17)      0.003460    238.2   313.4
   326(16)      0.00391     238.2   314.5
   332(16)      0.00391     238.3   315.3
   299(16)      0.00391     238.3   316.0
   314(16)      0.00391     238.4   316.4
   332(16)      0.00391     238.4   316.5
   312(16)      0.00391     238.4   316.4
   318(16)      0.00391     238.5   316.0
   315(16)      0.00391     238.5   315.4
   317(16)      0.00391     238.6   314.6
   296(13)      0.00592     238.6   313.5
   287(15)      0.00444     238.6   312.3
   320(16)      0.00391     238.7   310.8
   303(16)      0.00391     238.7   309.2
   296(16)      0.00391     238.8   307.5
   322(16)      0.00391     238.8   305.6
   326(16)      0.00391     238.8   303.6
   331(16)      0.00391     238.9   301.6
   287(15)      0.00444     238.9   299.6
   303(16)      0.00391     239.0   297.5
   313(16)      0.00391     239.0   295.4
   294(16)      0.00391     239.0   293.4
   291(15)      0.00444     239.1   291.4
   294(16)      0.00391     239.1   289.4
   298(16)      0.00391     239.2   287.6
   288(15)      0.00444     239.2   285.9
   284(15)      0.00444     239.2   284.3
   296(16)      0.00391     239.3   282.8
   298(16)      0.00391     239.3   281.5
   273(15)      0.00444     239.4   280.3
   270(15)      0.00444     239.4   279.3
   289(15)      0.00444     239.4   278.4
   283(15)      0.00444     239.5   277.8
   289(15)      0.00444     239.5   277.3
   301(16)      0.00391     239.6   277.0
   289(15)      0.00444     239.6   276.9
   277(15)      0.00444     239.6   276.9
   298(16)      0.00391     239.7   277.1
   317(16)      0.00391     239.7   277.6
   275(15)      0.00444     239.8   278.2
   289(15)      0.00444     239.8   279.0
   306(16)      0.00391     239.9   279.9
   301(16)      0.00391     239.9   281.0
   279(15)      0.00444     239.9   282.2
   280(15)      0.00444     240.0   283.5
   298(16)      0.00391     240.0   285.0
   287(15)      0.00444     240.1   286.6
   282(15)      0.00444     240.1   288.2
   300(16)      0.00391     240.1   289.9
   301(16)      0.00391     240.2   291.7
   280(15)      0.00444     240.2   293.5
   285(15)      0.00444     240.3   295.3
   296(16)      0.00391     240.3   297.2
   293(15)      0.00444     240.3   299.0
   308(16)      0.00391     240.4   300.7
   291(15)      0.00444     240.4   302.4
   311(16)      0.00391     240.5   304.0
   318(16)      0.00391     240.5   305.6
   307(16)      0.00391     240.6   307.0
   290(15)      0.00444     240.6   308.3
   300(16)      0.00391     240.6   309.5
   315(16)      0.00391     240.7   310.5
   322(16)      0.00391     240.7   311.3
   315(16)      0.00391     240.8   312.0
   301(16)      0.00391     240.8   312.5
   300(16)      0.00391     240.8   312.9
   300(16)      0.00391     240.9   313.1
   308(16)      0.00391     240.9   313.1
   314(16)      0.00391     241.0   312.9
   315(16)      0.00391     241.0   312.6
   327(16)      0.00391     241.0   312.1
   320(16)      0.00391     241.1   311.5
   320(16)      0.00391     241.1   310.8
   332(16)      0.00391     241.2   309.9
   321(16)      0.00391     241.2   308.9
   318(16)      0.00391     241.2   307.8
   306(16)      0.00391     241.3   306.7
   287(15)      0.00444     241.3   305.4
   301(16)      0.00391     241.4   304.1
   308(16)      0.00391     241.4   302.7
   299(16)      0.00391     241.4   301.3
   291(15)      0.00444     241.5   299.8
   291(15)      0.00444     241.5   298.3
   299(16)      0.00391     241.6   296.8
   280(15)      0.00444     241.6   295.3
   284(15)      0.00444     241.6   293.7
   300(16)      0.00391     241.7   292.2
   290(15)      0.00444     241.7   290.7
   278(15)      0.00444     241.7   289.2
   277(15)      0.00444     241.8   287.8
   307(16)      0.00391     241.8   286.4
   288(15)      0.00444     241.9   285.1
   282(15)      0.00444     241.9   283.8
   268(15)      0.00444     241.9   282.6
   299(16)      0.00391     242.0   281.5
   289(15)      0.00444     242.0   280.5
   285(15)      0.00444     242.0   279.6
   275(15)      0.00444     242.1   278.8
   282(15)      0.00444     242.1   278.1
   270(15)      0.00444     242.1   277.6
   271(15)      0.00444     242.2   277.1
   270(15)      0.00444     242.2   276.8
   280(15)      0.00444     242.3   276.7
   285(15)      0.00444     242.3   276.6
   262(15)      0.00444     242.3   276.7
   264(15)      0.00444     242.4   277.0
   279(15)      0.00444     242.4   277.4
   280(15)      0.00444     242.4   277.9
   266(15)      0.00444     242.5   278.5
   265(15)      0.00444     242.5   279.3
   288(15)      0.00444     242.5   280.2
   281(15)      0.00444     242.5   281.2
   289(16)      0.00391     242.6   282.4
   279(15)      0.00444     242.6   283.6
   276(15)      0.00444     242.6   284.9
   291(16)      0.00391     242.7   286.2
   269(15)      0.00444     242.7   287.7
   250(15)      0.00444     242.7   289.2
   292(16)      0.00391     242.8   290.7
   283(15)      0.00444     242.8   292.3
   307(16)      0.00391     242.8   293.8
   280(15)      0.00444     242.8   295.3
   301(16)      0.00391     242.9   296.9
   285(16)      0.00391     242.9   298.3
   272(15)      0.00444     242.9   299.8
   284(15)      0.00444     243.0   301.1
   291(16)      0.00391     243.0   302.3
   284(15)      0.00444     243.0   303.5
   277(15)      0.00444     243.0   304.5
   303(16)      0.00391     243.1   305.4
   294(16)      0.00391     243.1   306.1
   299(16)      0.00391     243.1   306.7
   289(16)      0.00391     243.1   307.1
   307(16)      0.00391     243.1   307.3
   286(16)      0.00391     243.2   307.4
   318(16)      0.00391     243.2   307.3
   332(17)      0.003460    243.2   307.0
   298(16)      0.00391     243.2   306.6
   286(16)      0.00391     243.2   306.0
   283(15)      0.00444     243.3   305.2
   285(16)      0.00391     243.3   304.3
   295(16)      0.00391     243.3   303.2
   292(16)      0.00391     243.3   302.0
   300(16)      0.00391     243.3   300.6
   288(16)      0.00391     243.4   299.2
   272(15)      0.00444     243.4   297.7
   259(15)      0.00444     243.4   296.0
   280(15)      0.00444     243.4   294.3
   278(15)      0.00444     243.4   292.6
   293(16)      0.00391     243.4   290.8
   294(16)      0.00391     243.4   289.0
   301(16)      0.00391     243.4   287.1
   285(16)      0.00391     243.5   285.2
   277(15)      0.00444     243.5   283.4
   274(15)      0.00444     243.5   281.6
   262(15)      0.00444     243.5   279.7
   260(15)      0.00444     243.5   278.0
   279(15)      0.00444     243.5   276.2
   261(15)      0.00444     243.5   274.5
   258(15)      0.00444     243.5   272.9
   276(15)      0.00444     243.5   271.3
   275(15)      0.00444     243.5   269.8
   251(15)      0.00444     243.5   268.4
   270(15)      0.00444     243.5   267.0
   268(15)      0.00444     243.5   265.7
   255(15)      0.00444     243.5   264.5
   260(15)      0.00444     243.5   263.4
   274(15)      0.00444     243.5   262.3
   279(15)      0.00444     243.5   261.3
   271(15)      0.00444     243.5   260.4
   258(15)      0.00444     243.5   259.5
   239(14)      0.00510     243.5   258.7
   265(15)      0.00444     243.5   258.0
   270(15)      0.00444     243.5   257.3
   251(15)      0.00444     243.5   256.7
   246(14)      0.00510     243.5   256.2
   258(15)      0.00444     243.5   255.7
   250(15)      0.00444     243.5   255.3
   257(15)      0.00444     243.4   254.9
   236(14)      0.00510     243.4   254.5
   261(15)      0.00444     243.4   254.3
   235(14)      0.00510     243.4   254.0
   241(14)      0.00510     243.4   253.8
   253(15)      0.00444     243.4   253.6
   248(15)      0.00444     243.4   253.4
   252(15)      0.00444     243.3   253.3
   255(15)      0.00444     243.3   253.2
   263(15)      0.00444     243.3   253.2
   235(14)      0.00510     243.3   253.1
   262(15)      0.00444     243.2   253.1
   255(15)      0.00444     243.2   253.1
   259(15)      0.00444     243.2   253.1
   253(15)      0.00444     243.2   253.2
   250(15)      0.00444     243.1   253.3
   248(15)      0.00444     243.1   253.3
   258(15)      0.00444     243.1   253.4
   271(15)      0.00444     243.0   253.6
   259(15)      0.00444     243.0   253.7
   267(15)      0.00444     243.0   253.8
   251(15)      0.00444     242.9   254.0
   262(15)      0.00444     242.9   254.2
   259(15)      0.00444     242.9   254.3
   261(15)      0.00444     242.8   254.5
   256(15)      0.00444     242.8   254.7
   255(15)      0.00444     242.7   254.9
   276(15)      0.00444     242.7   255.2
   270(15)      0.00444     242.6   255.4
   262(15)      0.00444     242.6   255.6
   248(15)      0.00444     242.5   255.9
   272(15)      0.00444     242.5   256.1
   266(15)      0.00444     242.4   256.4
   261(15)      0.00444     242.4   256.6
   250(15)      0.00444     242.3   256.9
   254(15)      0.00444     242.3   257.1
   256(15)      0.00444     242.2   257.4
   247(15)      0.00444     242.1   257.6
   250(15)      0.00444     242.1   257.8
   255(15)      0.00444     242.0   258.1
   241(15)      0.00444     242.0   258.3
   265(15)      0.00444     241.9   258.5
   250(15)      0.00444     241.8   258.7
   255(15)      0.00444     241.7   258.9
   259(15)      0.00444     241.7   259.0
   276(16)      0.00391     241.6   259.1
   272(16)      0.00391     241.5   259.3
   266(15)      0.00444     241.4   259.4
   258(15)      0.00444     241.4   259.4
   267(15)      0.00444     241.3   259.4
   259(15)      0.00444     241.2   259.5
   253(15)      0.00444     241.1   259.4
   265(15)      0.00444     241.0   259.4
   256(15)      0.00444     240.9   259.3
   236(15)      0.00444     240.8   259.2
   256(15)      0.00444     240.7   259.0
   259(15)      0.00444     240.7   258.8
   260(15)      0.00444     240.6   258.6
   270(15)      0.00444     240.5   258.3
   266(15)      0.00444     240.4   258.1
   281(16)      0.00391     240.3   257.7
   269(15)      0.00444     240.1   257.4
   260(15)      0.00444     240.0   257.0
   266(15)      0.00444     239.9   256.7
   268(15)      0.00444     239.8   256.3
   262(15)      0.00444     239.7   255.8
   243(15)     .            .       .
   227(14)     .            .       .
   268(15)     .            .       .
   268(15)     .            .       .
   263(15)     .            .       .
   281(16)     .            .       .
   254(15)     .            .       .
   248(15)     .            .       .
   262(15)     .            .       .
   268(15)     .            .       .
   273(16)     .            .       .
   247(15)     .            .       .
   272(16)     .            .       .
   253(15)     .            .       .
   245(15)     .            .       .
   266(15)     .            .       .
   264(15)     .            .       .
   262(15)     .            .       .
   256(15)     .            .       .
   252(15)     .            .       .
   269(15)     .            .       .
   246(15)     .            .       .
   273(16)     .            .       .
   266(15)     .            .       .
   254(15)     .            .       .
   258(15)     .            .       .
   275(16)     .            .       .
   271(16)     .            .       .
   269(15)     .            .       .
   282(16)     .            .       .
   273(16)     .            .       .
   276(16)     .            .       .
   266(15)     .            .       .
   285(16)     .            .       .
   278(16)     .            .       .
   270(15)     .            .       .
   274(16)     .            .       .
   295(16)     .            .       .
   266(15)     .            .       .
   257(15)     .            .       .
   271(16)     .            .       .
   279(16)     .            .       .
   294(16)     .            .       .
   293(16)     .            .       .
   277(16)     .            .       .
   276(16)     .            .       .
   262(15)     .            .       .
   267(15)     .            .       .
   272(16)     .            .       .
   272(16)     .            .       .
   277(16)     .            .       .
   284(16)     .            .       .
   282(16)     .            .       .
   291(16)     .            .       .
   262(15)     .            .       .
   276(16)     .            .       .
   303(16)     .            .       .
   276(16)     .            .       .
   285(16)     .            .       .
   279(16)     .            .       .
   287(16)     .            .       .
   291(16)     .            .       .
   270(16)     .            .       .
   261(15)     .            .       .
   284(16)     .            .       .
   288(16)     .            .       .
   289(13)     .            .       .
   288(16)     .            .       .
   290(17)     .            .       .
   271(16)     .            .       .
   277(16)     .            .       .
   268(16)     .            .       .
   279(16)     .            .       .
   291(17)     .            .       .
   268(16)     .            .       .
   254(16)     .            .       .
   270(16)     .            .       .
   286(16)     .            .       .
   291(17)     .            .       .
   282(16)     .            .       .
   283(16)     .            .       .
   287(16)     .            .       .
   292(17)     .            .       .
   294(17)     .            .       .
   288(17)     .            .       .
   294(17)     .            .       .
   306(17)     .            .       .
   303(17)     .            .       .
   292(17)     .            .       .
   295(17)     .            .       .
   296(17)     .            .       .
   288(17)     .            .       .
   277(16)     .            .       .
   291(17)     .            .       .
   315(17)     .            .       .
   320(17)     .            .       .
   305(17)     .            .       .
   310(17)     .            .       .
   300(17)     .            .       .
   311(17)     .            .       .
   295(17)     .            .       .
   294(17)     .            .       .
   331(17)     .            .       .
   310(17)     .            .       .
   305(17)     .            .       .
   305(17)     .            .       .
   322(17)     .            .       .
   336(18)     .            .       .
   319(17)     .            .       .
   318(17)     .            .       .
   313(17)     .            .       .
   315(17)     .            .       .
   336(18)     .            .       .
   332(17)     .            .       .
   306(17)     .            .       .
   305(17)     .            .       .
   313(17)     .            .       .
   318(17)     .            .       .
   316(17)     .            .       .
   313(17)     .            .       .
   321(17)     .            .       .
   335(18)     .            .       .
   329(17)     .            .       .
   304(17)     .            .       .
   323(17)     .            .       .
   360(18)     .            .       .
   342(18)     .            .       .
   341(18)     .            .       .
   347(18)     .            .       .
   332(18)     .            .       .
   327(17)     .            .       .
   318(17)     .            .       .
   323(17)     .            .       .
   331(17)     .            .       .
   329(17)     .            .       .
   345(18)     .            .       .
   348(18)     .            .       .
   342(18)     .            .       .
   343(18)     .            .       .
   344(18)     .            .       .
   333(18)     .            .       .
   336(18)     .            .       .
   345(18)     .            .       .
   334(18)     .            .       .
   327(17)     .            .       .
   357(18)     .            .       .
   358(18)     .            .       .
   351(18)     .            .       .
   364(18)     .            .       .
   363(18)     .            .       .
   355(18)     .            .       .
   324(17)     .            .       .
   335(18)     .            .       .
   350(18)     .            .       .
   352(18)     .            .       .
   345(18)     .            .       .
   345(18)     .            .       .
   373(18)     .            .       .
   364(18)     .            .       .
   359(18)     .            .       .
   379(19)     .            .       .
   377(18)     .            .       .
   368(18)     .            .       .
   373(18)     .            .       .
   376(18)     .            .       .
   387(19)     .            .       .
   402(20)     .            .       .
   376(19)     .            .       .
   387(19)     .            .       .
   413(20)     .            .       .
   415(20)     .            .       .
   410(20)     .            .       .
   393(20)     .            .       .
   396(20)     .            .       .
   394(20)     .            .       .
   363(19)     .            .       .
   372(19)     .            .       .
   392(19)     .            .       .
   399(20)     .            .       .
   384(19)     .            .       .
   378(19)     .            .       .
   403(20)     .            .       .
   410(20)     .            .       .
   418(20)     .            .       .
   393(20)     .            .       .
   395(20)     .            .       .
   399(20)     .            .       .
   406(20)     .            .       .
   415(20)     .            .       .
   408(20)     .            .       .
   396(20)     .            .       .
   440(20)     .            .       .
   418(20)     .            .       .
   412(20)     .            .       .
   412(20)     .            .       .
   420(20)     .            .       .
   434(20)     .            .       .
   436(20)     .            .       .
   411(20)     .            .       .
   450(21)     .            .       .
   426(20)     .            .       .
   426(20)     .            .       .
   429(20)     .            .       .
   451(21)     .            .       .
   460(21)     .            .       .
   467(21)     .            .       .
   479(21)     .            .       .
   439(20)     .            .       .
   445(21)     .            .       .
   434(20)     .            .       .
   475(21)     .            .       .
   490(21)     .            .       .
   462(21)     .            .       .
   475(21)     .            .       .
   476(21)     .            .       .
   449(21)     .            .       .
   464(21)     .            .       .
   467(21)     .            .       .
   466(21)     .            .       .
   498(21)     .            .       .
   511(22)     .            .       .
   528(22)     .            .       .
   532(22)     .            .       .
   480(21)     .            .       .
   482(21)     .            .       .
   480(21)     .            .       .
   480(21)     .            .       .
   517(22)     .            .       .
   469(21)     .            .       .
   485(21)     .            .       .
   517(22)     .            .       .
   510(22)     .            .       .
   512(22)     .            .       .
   532(22)     .            .       .
   519(22)     .            .       .
   525(22)     .            .       .
   561(23)     .            .       .
   521(22)     .            .       .
   530(22)     .            .       .
   547(22)     .            .       .
   550(22)     .            .       .
   527(22)     .            .       .
   569(23)     .            .       .
   547(22)     .            .       .
   557(23)     .            .       .
   551(22)     .            .       .
   571(23)     .            .       .
   561(23)     .            .       .
   548(22)     .            .       .
   572(23)     .            .       .
   553(22)     .            .       .
   555(23)     .            .       .
   605(23)     .            .       .
   596(23)     .            .       .
   561(23)     .            .       .
   563(23)     .            .       .
   587(23)     .            .       .
   620(24)     .            .       .
   616(24)     .            .       .
   606(23)     .            .       .
   607(23)     .            .       .
   607(23)     .            .       .
   628(24)     .            .       .
   642(24)     .            .       .
   649(24)     .            .       .
   599(23)     .            .       .
   623(34)     .            .       .
   684(35)     .            .       .
   593(33)     .            .       .
   628(34)     .            .       .
   672(35)     .            .       .
   678(35)     .            .       .
   646(35)     .            .       .
   615(34)     .            .       .
   622(34)     .            .       .
   672(35)     .            .       .
   667(35)     .            .       .
   647(35)     .            .       .
   673(35)     .            .       .
   684(35)     .            .       .
   653(35)     .            .       .
   658(35)     .            .       .
   703(36)     .            .       .
   702(36)     .            .       .
   686(35)     .            .       .
   719(36)     .            .       .
   701(36)     .            .       .
   710(36)     .            .       .
   715(36)     .            .       .
   669(35)     .            .       .
   707(36)     .            .       .
   706(36)     .            .       .
   693(36)     .            .       .
   639(34)     .            .       .
   707(36)     .            .       .
   716(36)     .            .       .
   732(36)     .            .       .
   739(37)     .            .       .
   742(37)     .            .       .
   718(36)     .            .       .
   699(36)     .            .       .
   746(37)     .            .       .
   750(37)     .            .       .
   745(37)     .            .       .
   767(37)     .            .       .
   719(36)     .            .       .
   729(36)     .            .       .
   795(38)     .            .       .
   766(37)     .            .       .
   781(37)     .            .       .
   763(37)     .            .       .
   762(37)     .            .       .
   760(37)     .            .       .
   737(37)     .            .       .
   743(37)     .            .       .
   745(37)     .            .       .
   743(37)     .            .       .
   779(37)     .            .       .
   803(38)     .            .       .
   717(36)     .            .       .
   775(37)     .            .       .
   833(39)     .            .       .
   790(38)     .            .       .
   788(38)     .            .       .
   778(37)     .            .       .
   779(37)     .            .       .
   745(37)     .            .       .
   747(37)     .            .       .
   797(38)     .            .       .
   869(39)     .            .       .
   843(39)     .            .       .
   809(38)     .            .       .
   747(37)     .            .       .
   838(39)     .            .       .
   808(38)     .            .       .
   813(38)     .            .       .
   828(38)     .            .       .
   889(40)     .            .       .
   872(39)     .            .       .
   805(38)     .            .       .
   813(38)     .            .       .
   881(39)     .            .       .
   827(38)     .            .       .
   831(38)     .            .       .
   864(39)     .            .       .
   815(38)     .            .       .
   793(38)     .            .       .
   834(39)     .            .       .
   913(40)     .            .       .
   846(39)     .            .       .
   821(38)     .            .       .
   842(39)     .            .       .
   822(38)     .            .       .
   840(39)     .            .       .
   904(40)     .            .       .
   867(39)     .            .       .
   826(38)     .            .       .
   898(40)     .            .       .
   939(41)     .            .       .
   959(41)     .            .       .
   971(41)     .            .       .
   859(39)     .            .       .
   878(39)     .            .       .
   910(40)     .            .       .
   865(39)     .            .       .
   914(40)     .            .       .
_pd_meas_number_of_points              3296
_pd_proc_number_of_points              3296

loop_
      _refln_index_h
      _refln_index_k
      _refln_index_l
      _refln_observed_status
      _refln_F_squared_meas
      _refln_F_squared_calc
      _refln_phase_calc
      _refln_d_spacing
      _gsas_i100_meas
   1   0   1 o  314.623  314.063   0.00    9.26982 100.00
   1   1   0 o  89.518   105.298  180.00   6.80274  15.41
   1   0  -2 o  20.223   25.093    0.00    6.33205   3.02
   2   0  -1 o  68.731   56.942   180.00   5.48439   7.74
   0   0   3 o  314.848  328.849  180.00   5.00562   9.88
   2   0   2 o  30.983   19.872   180.00   4.63491   2.51
   2   1   1 o  155.090  140.161  180.00   4.26964  21.43
   1   1   3 o   2.211    0.548    0.00    4.03176   0.27
   3   0   0 o  57.218   53.233    0.00    3.92756   3.36
   2   1  -2 o  14.063   11.711   180.00   3.83036   1.58
   1   0   4 o  283.434  243.088  180.00   3.57703  13.93
   2   2   0 o  139.993  123.561  180.00   3.40137   6.25
   3   1  -1 o  30.284   21.471    0.00    3.19319   2.40
   2   0  -4 o  15.309   12.992    0.00    3.16602   0.60
   3   0  -3 o   0.811    0.362    0.00    3.08994   0.03
   3   0   3 o   4.925    2.200    0.00    3.08994   0.18
   3   1   2 o  15.641   14.565    0.00    2.99642   1.10
   1   0  -5 o  152.272  137.180  180.00   2.91031   5.07
   4   0   1 o  457.329  440.666   0.00    2.89058  15.05
   2   1   4 o  68.405   68.560    0.00    2.87039   4.44
   2   2   3 o   0.807    0.997    0.00    2.81332   0.05
   4   0  -2 o   0.000    8.542    0.00    2.74219   0.00
   2   0   5 o   0.000    4.535    0.00    2.67573   0.00
   3   2   1 o   0.000    3.222   180.00   2.66038   0.00
   4   1   0 o  28.737   22.003    0.00    2.57119   1.53
   3   2  -2 o   9.802    9.894   180.00   2.54333   0.51
   0   0   6 o  42.024   27.034    0.00    2.50281   0.35
   2   1  -5 o  28.568   19.481    0.00    2.49004   1.43
   3   1  -4 o   0.280    0.654   180.00   2.46489   0.01
   1   1   6 o  51.557   42.124   180.00   2.34888   2.33
   5   0  -1 o  76.148   73.619   180.00   2.32805   1.70
   4   0   4 o  15.720   15.695    0.00    2.31745   0.35
   4   1   3 o  72.252   68.501    0.00    2.28711   3.12
   4   1  -3 o  12.023   11.399   180.00   2.28711   0.52
   3   3   0 o  194.648  188.239   0.00    2.26758   4.14
   5   0   2 o  324.497  346.233   0.00    2.24840   6.80
   3   1   5 o  45.815   42.653    0.00    2.21133   1.87
   4   2  -1 o   5.119    4.078    0.00    2.20263   0.21
   3   2   4 o  37.345   27.875   180.00   2.19366   1.50
   4   2   2 o  48.411   29.621   180.00   2.13482   1.86
   3   0  -6 o  142.993  138.093   0.00    2.11068   2.69
   3   0   6 o  208.670  201.519   0.00    2.11068   3.93
   1   0   7 o  58.552   56.587    0.00    2.11057   1.10
   4   0  -5 o  40.828   39.053    0.00    2.10301   0.76
   5   1   1 o  10.154    9.090   180.00   2.09553   0.38
   3   3   3 o  259.428  241.885  180.00   2.06552   9.41
   5   1  -2 o  63.123   61.681   180.00   2.03688   2.24
   2   2   6 o   2.832    2.697   180.00   2.01588   0.10
   2   0  -7 o  48.545   46.238   180.00   2.01578   0.85
   3   2  -5 o  81.725   75.888   180.00   2.00919   2.83
   5   0  -4 o   3.172    2.739    0.00    1.99591   0.05
   6   0   0 o  15.265   18.214   180.00   1.96378   0.25
   2   1   7 o  16.091   12.017   180.00   1.93271   0.52
   4   3   1 o  167.121  148.731   0.00    1.92114   5.39
   4   2  -4 o  106.344  98.825   180.00   1.91518   3.41
   5   2   0 o  63.536   52.958   180.00   1.88674   1.99
   4   3  -2 o  33.065   28.158    0.00    1.87565   1.03
   5   0   5 o  293.276  285.064  180.00   1.85396   4.47
   1   0  -8 o  154.425  150.068   0.00    1.85373   2.36
   5   1   4 o   3.713    3.217   180.00   1.84351   0.11
   6   0   3 o   7.601    7.128   180.00   1.82813   0.11
   6   0  -3 o  24.837   23.291   180.00   1.82813   0.37
   4   1   6 o  157.602  163.602  180.00   1.79344   4.57
   4   1  -6 o   4.840    5.024   180.00   1.79344   0.14
   3   1  -7 o  48.132   49.931    0.00    1.79337   1.40
   4   2   5 o   4.987    5.096   180.00   1.78873   0.14
   2   0   8 o  34.449   35.221   180.00   1.78852   0.50
   6   1  -1 o   2.541    2.758   180.00   1.78412   0.07
   5   2   3 o   4.896    6.793   180.00   1.76549   0.14
   5   2  -3 o  12.751   17.690    0.00    1.76549   0.36
   6   1   2 o  82.455   92.085   180.00   1.74750   2.30
   4   0   7 o   0.648    0.843   180.00   1.73412   0.01
   5   1  -5 o   0.532    0.756   180.00   1.72992   0.01
   2   1  -8 o  28.288   40.216   180.00   1.72973   0.78
   4   3   4 o  18.878   25.588   180.00   1.72142   0.52
   4   4   0 o  365.340  382.766   0.00    1.70068   4.91
   3   3   6 o  98.146   105.166   0.00    1.68044   2.59
   3   2   7 o   1.284    1.373   180.00   1.68039   0.03
   7   0   1 o   9.534    8.798    0.00    1.67277   0.13
   5   3  -1 o  21.432   19.777    0.00    1.67277   0.56
   0   0   9 o  533.050  467.084   0.00    1.66854   2.32
   7   0  -2 o  60.107   41.594    0.00    1.64247   0.77
   5   3   2 o  11.478    7.943    0.00    1.64247   0.29
   4   3  -5 o   1.597    1.468    0.00    1.62785   0.04
   3   1   8 o   8.779    8.106   180.00   1.62770   0.22
   6   2   1 o  271.274  263.862  180.00   1.62438   6.85
   6   1  -4 o  22.335   21.882    0.00    1.62077   0.56
   1   1   9 o   0.381    0.374   180.00   1.62051   0.01
   4   4   3 o  19.978   19.726    0.00    1.61028   0.50
   6   2  -2 o  28.998   37.297    0.00    1.59660   0.72
   5   0  -7 o  17.263   23.073   180.00   1.58638   0.21
   4   0  -8 o  65.605   76.677    0.00    1.58301   0.80
   7   1   0 o   1.492    2.914    0.00    1.56065   0.04
   6   0  -6 o  56.698   53.021    0.00    1.54497   0.67
   6   0   6 o   1.437    1.344    0.00    1.54497   0.02
   4   2  -7 o  34.915   32.658    0.00    1.54492   0.83
   6   1   5 o  138.890  132.338   0.00    1.54195   3.29
   3   2  -8 o  48.937   46.679    0.00    1.54182   1.16
   7   0   4 o  17.225   16.322    0.00    1.53592   0.20
   5   3  -4 o  12.420   11.769    0.00    1.53592   0.29
   3   0   9 o  123.473  116.346  180.00   1.53570   1.45
   3   0  -9 o   9.997    9.420   180.00   1.53570   0.12
   5   2  -6 o  25.442   21.936   180.00   1.50660   0.59
   5   2   6 o  21.481   18.521    0.00    1.50660   0.49
   5   1   7 o  66.456   57.417   180.00   1.50656   1.53
   5   4   1 o  124.226  118.718   0.00    1.50106   2.85
   6   2   4 o  50.419   47.986    0.00    1.49821   1.15
   2   2   9 o  10.801   10.278   180.00   1.49801   0.25
   7   1  -3 o  76.040   75.172    0.00    1.48992   1.73
   7   1   3 o   0.215    0.213    0.00    1.48992   0.00
   1   0  10 o  70.478   69.843    0.00    1.48964   0.80
   6   3   0 o  14.864   16.103   180.00   1.48448   0.34
   5   4  -2 o   6.908    8.438    0.00    1.47906   0.16
   7   0  -5 o  101.791  102.568   0.00    1.46836   1.14
   5   3   5 o  21.296   21.458   180.00   1.46836   0.48
   5   0   8 o   8.283    8.348    0.00    1.46824   0.09
   8   0  -1 o  171.815  178.006   0.00    1.46580   1.92
   2   0 -10 o   1.502    2.743   180.00   1.45516   0.02
   8   0   2 o  86.439   98.111    0.00    1.44529   0.95
   4   3   7 o  162.955  165.599   0.00    1.43770   3.58
   6   2  -5 o   6.042    5.992   180.00   1.43530   0.13
   4   2   8 o   0.003    0.003   180.00   1.43519   0.00
   7   2  -1 o  20.878   20.664   180.00   1.43292   0.46
   6   3   3 o  22.769   25.870   180.00   1.42321   0.50
   6   3  -3 o   5.535    6.289   180.00   1.42321   0.12
   2   1  10 o  80.076   90.985   180.00   1.42297   1.74
   7   2   2 o  56.146   53.918   180.00   1.41374   1.22
   4   4   6 o  52.052   47.512   180.00   1.40666   1.12
   5   1  -8 o  30.026   27.383   180.00   1.40428   0.65
   5   4   4 o  238.760  204.908  180.00   1.39982   5.13
   4   1   9 o  131.475  112.245   0.00    1.39966   2.83
   4   1  -9 o  78.527   67.042    0.00    1.39966   1.69
   6   1  -7 o   0.939    0.502   180.00   1.37749   0.02
   8   1   1 o  76.960   55.727    0.00    1.37328   1.63
   8   0  -4 o   1.897    1.395    0.00    1.37110   0.02
   3   1 -10 o   6.458    4.684    0.00    1.36451   0.14
   5   5   0 o  100.898  77.762    0.00    1.36055   1.06
   8   1  -2 o   5.258    4.463    0.00    1.35637   0.11
   1   0 -11 o  27.468   23.475    0.00    1.35610   0.29
   5   4  -5 o  231.654  214.119  180.00   1.34810   4.86
   4   3  -8 o  47.135   43.560    0.00    1.34801   0.99
   6   4  -1 o   0.734    0.677    0.00    1.34613   0.02
   7   2  -4 o   0.053    0.049   180.00   1.34407   0.00
   3   3   9 o  27.210   25.320   180.00   1.34392   0.57
   4   0  10 o  357.690  347.500   0.00    1.33787   3.74
   6   4   2 o   3.102    2.778   180.00   1.33019   0.06
   2   0  11 o  52.350   46.948   180.00   1.32993   0.55
   7   1  -6 o   0.695    0.663   180.00   1.32429   0.01
   7   1   6 o  52.900   50.469    0.00    1.32429   1.10
   7   0   7 o  165.674  158.091   0.00    1.32426   1.72
   5   3  -7 o  94.294   89.978   180.00   1.32426   1.96
   8   0   5 o  131.166  125.838  180.00   1.32239   1.36
   7   3   1 o   5.153    4.909   180.00   1.32052   0.11
   5   5   3 o  106.725  106.639  180.00   1.31291   2.21
   3   2  10 o  11.450   11.471   180.00   1.31272   0.24
   9   0   0 o  430.185  437.891   0.00    1.30919   4.45
   7   3  -2 o  104.820  104.655  180.00   1.30546   2.17
   2   1 -11 o  18.216   18.184   180.00   1.30522   0.38
   6   2   7 o   1.825    1.909   180.00   1.29986   0.04
   7   2   5 o  42.267   45.015    0.00    1.29809   0.87
   6   1   8 o  38.274   40.789   180.00   1.29801   0.79
   8   1   4 o  119.799  130.337  180.00   1.29449   2.47
   8   2   0 o  43.432   47.342   180.00   1.28560   0.90
   6   3   6 o   0.325    0.317    0.00    1.27679   0.01
   6   3  -6 o  10.689   10.400   180.00   1.27679   0.22
   6   4  -4 o  40.805   41.715   180.00   1.27167   0.84
   6   0   9 o  60.438   61.923   180.00   1.27154   0.62
   6   0  -9 o  156.242  160.081  180.00   1.27154   1.61
   9   0   3 o  283.309  309.412  180.00   1.26658   2.92
   9   0  -3 o  106.848  116.693  180.00   1.26658   1.10
   5   0 -10 o  78.042   85.326    0.00    1.26641   0.80
   3   1  11 o  74.069   79.462    0.00    1.25967   1.53
   8   1  -5 o  70.195   71.087   180.00   1.25326   1.45
   5   3   8 o  52.496   53.168    0.00    1.25318   1.08
   7   0  -8 o   0.031    0.032   180.00   1.25318   0.00
   0   0  12 o  89.678   91.449    0.00    1.25140   0.31
   7   3   4 o  108.256  111.259   0.00    1.25001   2.24
   5   2   9 o  32.244   33.158   180.00   1.24989   0.67
   5   2  -9 o   3.228    3.319   180.00   1.24989   0.07
   8   2  -3 o  22.971   23.216   180.00   1.24518   0.48
   8   2   3 o  28.590   28.896    0.00    1.24518   0.59
   4   2 -10 o  63.195   63.748   180.00   1.24502   1.31
   4   0 -11 o  263.443  247.347   0.00    1.23862   2.73
   5   4   7 o   4.405    4.039   180.00   1.23403   0.09
   6   4   5 o   0.111    0.103   180.00   1.23252   0.00
   6   2  -8 o  20.203   18.795   180.00   1.23245   0.42
   6   5   1 o   7.628    7.231   180.00   1.23100   0.16
   9   1  -1 o  42.092   39.899    0.00    1.23100   0.87
   1   1  12 o  52.296   49.725   180.00   1.23075   1.09
   5   1  10 o   0.752    0.733   180.00   1.22468   0.02
   7   4   0 o  15.040   15.299   180.00   1.22181   0.31
   6   5  -2 o   0.004    0.005    0.00    1.21878   0.00
   9   1   2 o  35.723   38.302   180.00   1.21878   0.75
   3   2 -11 o  177.061  190.156  180.00   1.21858   3.70
   8   0  -7 o   1.449    1.480   180.00   1.21422   0.02
   7   3  -5 o  225.902  222.013   0.00    1.21277   4.74
   5   5   6 o  49.132   45.001   180.00   1.19535   1.04
   7   2  -7 o   0.429    0.394    0.00    1.19532   0.01
   8   3  -1 o  274.659  265.143  180.00   1.19257   5.85
   3   0  12 o  304.645  294.426   0.00    1.19234   3.24
   3   0 -12 o  122.609  118.496   0.00    1.19234   1.31
   4   4   9 o  404.056  390.569   0.00    1.19104   8.62
   7   4  -3 o  25.123   23.983    0.00    1.18696   0.54
   7   4   3 o  252.829  241.364   0.00    1.18696   5.42
   4   3  10 o   0.004    0.003   180.00   1.18682   0.00
   8   3   2 o  360.147  358.188   0.00    1.18145   7.76
   5   0  11 o  72.808   72.496    0.00    1.18127   0.78
   5   4  -8 o  11.477   12.221    0.00    1.17591   0.25
  10   0   1 o   1.240    1.356    0.00    1.17466   0.01
   2   2  12 o  48.955   53.773   180.00   1.17444   1.06
   6   5   4 o   5.416    6.054    0.00    1.17329   0.12
   9   1  -4 o  154.948  173.201  180.00   1.17329   3.38
  10   0  -2 o  26.101   26.992    0.00    1.16402   0.29
   4   2  11 o  25.912   26.742   180.00   1.16385   0.57
   9   0   6 o  28.386   29.334   180.00   1.16006   0.32
   9   0  -6 o  110.869  114.573  180.00   1.16006   1.23
   8   1   7 o  12.133   12.541    0.00    1.16004   0.27
   8   0   8 o  495.508  520.095   0.00    1.15873   5.52
   9   2   1 o   3.105    3.303   180.00   1.15753   0.07
   6   1 -10 o  52.082   55.367   180.00   1.15226   1.18
   9   2  -2 o  48.048   46.656   180.00   1.14735   1.10
   5   1 -11 o   9.106    8.830   180.00   1.14718   0.21
   1   0  13 o   7.821    7.895   180.00   1.14963   0.09
   8   2  -6 o  62.959   61.860    0.00    1.14356   1.45
   8   2   6 o  15.003   14.741   180.00   1.14356   0.35
   6   4  -7 o  16.430   16.145    0.00    1.14354   0.38
   6   5  -5 o   3.656    3.614   180.00   1.14233   0.08
   9   1   5 o  40.591   40.128   180.00   1.14233   0.94
   7   2   8 o  78.827   77.938   180.00   1.14228   1.82
   8   3  -4 o  314.461  306.726   0.00    1.13987   7.30
   7   1   9 o  13.678   13.324    0.00    1.13978   0.32
   7   1  -9 o  17.406   16.955    0.00    1.13978   0.40
   6   6   0 o   2.644    2.087   180.00   1.13379   0.03
   2   0 -13 o  18.753   14.687   180.00   1.13356   0.22
   7   3   7 o  32.332   27.065   180.00   1.12771   0.78
   7   5  -1 o  13.765   12.176    0.00    1.12540   0.33
   4   1  12 o   2.535    2.250    0.00    1.12521   0.06
   4   1 -12 o   5.499    4.881   180.00   1.12521   0.13
  10   0   4 o  76.490   69.066   180.00   1.12420   0.93
   7   0  10 o   3.739    3.486   180.00   1.12056   0.05
   5   3 -10 o  261.433  243.727   0.00    1.12056   6.44
  10   1   0 o   1.326    1.211   180.00   1.11836   0.03
   2   1  13 o  17.136   15.598    0.00    1.11814   0.43
   7   5   2 o   2.522    2.234   180.00   1.11604   0.06
   4   3 -11 o  27.682   24.500    0.00    1.11589   0.69
   8   3   5 o   0.544    0.510    0.00    1.11142   0.01
   8   1  -8 o  18.918   17.779    0.00    1.11137   0.48
   8   4   1 o  92.936   89.314    0.00    1.11031   2.39
   9   2   4 o  18.579   18.202    0.00    1.10916   0.48
   6   3   9 o  94.054   92.254   180.00   1.10907   2.43
   6   3  -9 o  19.984   19.601   180.00   1.10907   0.52
   6   6   3 o  26.149   26.691   180.00   1.10578   0.69
   6   2  10 o  64.210   65.641   180.00   1.10566   1.69
   8   4  -2 o   0.253    0.282   180.00   1.10132   0.01
  10   0  -5 o  89.507   105.091  180.00   1.09688   1.23
   6   4   8 o  30.066   35.297   180.00   1.09683   0.83
   3   3  12 o  14.199   16.559   180.00   1.09564   0.39
   7   4  -6 o  129.751  152.135   0.00    1.09796   3.56
   7   4   6 o   1.601    1.877    0.00    1.09796   0.04
   9   3   0 o   0.746    0.730    0.00    1.08931   0.02
   3   1 -13 o   4.900    4.749    0.00    1.08910   0.14
  10   1   3 o   0.402    0.432   180.00   1.09145   0.01
  10   1  -3 o   8.615    9.262    0.00    1.09145   0.25
   6   1  11 o  12.175   10.932   180.00   1.08702   0.36
   9   2  -5 o  37.349   32.334    0.00    1.08289   1.14
   7   3  -8 o  35.027   30.309   180.00   1.08284   1.07
_reflns_number_total                   266
_reflns_limit_h_min                    0
_reflns_limit_h_max                    11
_reflns_limit_k_min                    0
_reflns_limit_k_max                    6
_reflns_limit_l_min                    -14
_reflns_limit_l_max                    14
_reflns_d_resolution_high              1.083
_reflns_d_resolution_low               9.270
#--eof--eof--eof--eof--eof--eof--eof--eof--eof--eof--eof--eof--eof--eof--eof--#
