data_AMSinput
_cell_length_a   32.11000
_cell_length_b   41.69040
_cell_length_c   44.24360
_cell_angle_alpha   90.00790
_cell_angle_beta   89.39180
_cell_angle_gamma   89.99550
loop_
_atom_site_type_symbol
_atom_site_fract_x
_atom_site_fract_y
_atom_site_fract_z
H 0.1300068498318706 0.4350636529478389 0.6425621226843695
H 0.1300074734867575 0.4350637714839953 0.892562737205593
H 0.1300077413997063 0.435062444018895 0.1425624842694025
H 0.1300020163038682 0.4350633329834183 0.3925628610921503
H 0.3800068383122556 0.4350636549879728 0.6425621152737189
H 0.3800075202564034 0.4350637696803191 0.8925627667885158
H 0.3800078197933559 0.4350624526666309 0.1425625062965659
H 0.3800020368953225 0.435063329615151 0.3925628838452067
H 0.8697674002326861 0.4644601501573563 0.744620072845228
H 0.8697662291404851 0.4644601684605889 0.9946209817545569
H 0.8697691808265653 0.4644604159097391 0.2446193191326607
H 0.8697670586704617 0.4644596093499505 0.4946213309262081
H 0.1197674868326325 0.464460157941564 0.7446200652264363
H 0.1197663248949543 0.4644601803928302 0.9946209969935245
H 0.1197693007998415 0.4644604374518848 0.2446193458673559
H 0.1197669766584899 0.464459599940187 0.4946213377824359
H 0.3697673990107388 0.4644601481747074 0.7446200571519598
H 0.3697662421198831 0.4644601672467136 0.9946209926546719
H 0.369769187464963 0.4644604206440064 0.2446193168153107
H 0.3697670229118661 0.4644596054335384 0.4946213470265535
H 0.6197673932833566 0.4644601455078801 0.7446200571571635
H 0.6197664140105917 0.4644601885891252 0.9946210092279542
H 0.6197692272430186 0.4644604269361121 0.2446193327314479
H 0.6197670647727401 0.4644596126142272 0.4946213469699027
H 0.7610319539875224 0.4446417060566815 0.6266630544891552
H 0.7610308084304226 0.4446427565435461 0.8766634426606018
H 0.761029312915655 0.4446360593300967 0.1266549078852752
H 0.76103671842937 0.4446516553946317 0.3766816462161556
H 1.011031936155985 0.4446416401210758 0.6266629418986875
H 1.011030871308645 0.4446428621333221 0.8766637259056587
H 1.01102938066497 0.444636144884818 0.1266551071606073
H 1.011036722807688 0.4446516823055688 0.3766816905676881
H 0.2610319211302106 0.4446416413406537 0.6266628748965132
H 0.2610308230356937 0.4446428095149903 0.8766635870885078
H 0.2610293033995886 0.4446360396815173 0.1266548301951676
H 0.2610367378737444 0.4446516814187599 0.3766817468410118
H 0.5110319301857411 0.4446416620932533 0.6266629520673416
H 0.5110308770929967 0.4446428397987887 0.8766637092301017
H 0.5110293582714854 0.4446361505880981 0.126655078834889
H 0.5110367458905939 0.4446516893934133 0.3766817494248227
H 0.7213714020301315 0.4437188503792996 0.7287411947300856
H 0.7213774410633166 0.4437208614243184 0.9787483970849072
H 0.7213660286892615 0.4437167588947078 0.2287350040557404
H 0.7213595280007677 0.4437148737806622 0.4787284354433707
H 0.9713713694125148 0.4437188221168278 0.7287410861635951
H 0.9713772134774369 0.4437207773683653 0.9787480009468431
H 0.9713659281335257 0.4437167019946042 0.2287347534855489
H 0.9713595695913785 0.4437148958020042 0.4787285470547786
H 0.2213715466815732 0.4437188875241126 0.7287413934851598
H 0.2213772882775564 0.4437208113871716 0.9787481798415786
H 0.2213661243786433 0.4437167795248152 0.228735115594362
H 0.2213594363240637 0.4437148547268496 0.4787283249414461
H 0.4713714590333037 0.4437188669412197 0.7287412800552482
H 0.4713771526947637 0.4437207406526102 0.9787478447088156
H 0.4713660223020972 0.4437167410821998 0.2287349322483226
H 0.4713594646946584 0.4437148504661701 0.4787283315138747
H 0.6811680087679911 0.4376594032683008 0.8281279284690732
H 0.6811557855650419 0.4376629079814875 0.07812353302298658
H 0.681191999835865 0.4376513551973153 0.328140068688561
H 0.6811726664323166 0.4376580687293069 0.5781267152561174
H 0.931168458813952 0.4376593065663125 0.8281280857862108
H 0.9311562230818122 0.437662819793849 0.0781236452472763
H 0.9311921531928119 0.4376513283049616 0.3281400658849564
H 0.9311724735617972 0.4376581073619054 0.5781266685228361
H 0.1811681136608811 0.437659367366332 0.8281280320928081
H 0.181155769931608 0.4376629151253651 0.07812347070897391
H 0.1811920988051418 0.4376513281635064 0.3281401346628488
H 0.1811724709242988 0.4376581211149543 0.5781265980158311
H 0.4311683476547965 0.4376593194271527 0.8281281187997687
H 0.431156238772923 0.4376628205962655 0.07812359099632117
H 0.4311921519335312 0.4376513156778436 0.3281401372703502
H 0.4311725660571018 0.4376580995099629 0.5781266324842962
H 0.7922730670201874 0.4337585709503619 0.7984833106595498
H 0.7922717699426123 0.4337601457567073 0.04848391992858262
H 0.7922742409086142 0.4337561518084179 0.2984848605309328
H 0.7922746051026003 0.4337566180315947 0.5484824802253332
H 0.04227309559121072 0.4337585210140217 0.7984833210390451
H 0.04227175759095394 0.4337600716019175 0.04848388767774495
H 0.04227426229866798 0.4337561147190403 0.2984848401419592
H 0.0422745757294568 0.433756638536185 0.548482482837651
H 0.2922730682242377 0.4337585837745842 0.7984833524739396
H 0.2922717637658728 0.4337601282956438 0.04848388149597822
H 0.2922742595144575 0.4337561538563498 0.2984848833181902
H 0.2922745901054622 0.4337566228538999 0.5484824454029755
H 0.542273052649335 0.4337585504319555 0.7984833396247
H 0.5422717871333821 0.4337600584057562 0.04848386618709841
H 0.5422742365671614 0.4337561317727573 0.2984848648906983
H 0.5422746194488621 0.4337566129288201 0.5484824575400403
H 0.7713201652026448 0.4305703829518286 0.8358748890402085
H 0.7713234752345796 0.4305687147944613 0.08587287607301541
H 0.7713117224347583 0.4305734190898104 0.335881740638493
H 0.7713203791753968 0.4305700390016819 0.5858737709969711
H 0.02131991955570604 0.4305704000033065 0.8358749678806809
H 0.0213232429768487 0.4305687205196459 0.08587289481176932
H 0.02131165737964079 0.4305734187741376 0.3358817272020682
H 0.02132045678342106 0.4305700219755834 0.5858737429455592
H 0.271320071536769 0.4305703905520271 0.8358749623682725
H 0.2713235038385447 0.4305687016529194 0.08587281866670447
H 0.271311662152925 0.4305734227772572 0.3358817859170001
H 0.2713204990023629 0.4305700183211144 0.5858736882105818
H 0.5213199337490807 0.430570391260777 0.835874981051179
H 0.5213232522570374 0.4305687184252451 0.08587286350206999
H 0.521311622745641 0.4305734217905657 0.3358817719966519
H 0.5213204684460905 0.4305700315456207 0.5858737228017702
H 0.8488022355535864 0.4474623166641523 0.8004076319421505
H 0.8488021970296833 0.4474621757653808 0.05040910307376115
H 0.848801085456516 0.447462973400456 0.30040668109398
H 0.8488022599065688 0.4474625178952925 0.550406880578249
H 0.09880220945309987 0.4474622998650707 0.8004076409916889
H 0.09880213566600485 0.4474621519155408 0.05040907670914391
H 0.09880109535671609 0.4474629691311908 0.3004066759799212
H 0.09880224246731885 0.4474625196913457 0.5504068854932321
H 0.3488022249100197 0.4474623122772944 0.8004076650339683
H 0.3488021929518106 0.4474621775252408 0.05040907889301374
H 0.3488010984888133 0.4474629734107928 0.3004067066592409
H 0.3488022623336234 0.4474625233874698 0.5504068608752061
H 0.5988021780378672 0.4474622990412713 0.8004076495892738
H 0.5988021658506577 0.4474621606639379 0.05040906904672657
H 0.5988010703192145 0.4474629703381184 0.3004066935994627
H 0.5988022849438693 0.4474625287384717 0.5504068734606683
H 0.629994084622214 0.4350632020477041 0.7675613965128867
H 0.6299918810054812 0.4350628923874038 0.01756217705904465
H 0.6299972230904839 0.4350642509935817 0.2675612606574562
H 0.6299965720233378 0.4350622855020196 0.5175622402055093
H 0.8799941585652249 0.4350632062984978 0.767561393859687
H 0.8799917602674719 0.4350628920058239 0.01756213000898743
H 0.8799972165891172 0.4350642473229847 0.2675612385501727
H 0.8799965299405313 0.4350622892424602 0.5175622340240065
H 0.1299941627014157 0.4350632108392644 0.7675614097655096
H 0.1299918152676302 0.4350628861162183 0.01756216025486517
H 0.1299972990152025 0.4350642569773648 0.2675612742518875
H 0.1299964853525057 0.4350622778889559 0.5175622297197489
H 0.3799940988654452 0.435063211624499 0.7675613939200836
H 0.3799918044353864 0.43506288184391 0.01756213408331088
H 0.3799971914145103 0.4350642540489778 0.2675612428161797
H 0.3799965588134169 0.4350622786412698 0.5175622354392624
H 0.8697714983806086 0.4644592422925194 0.869620795626613
H 0.8697702793729432 0.4644588887082636 0.1196214775611989
H 0.8697694936062376 0.4644594388655093 0.3696212537085808
H 0.8697710635199101 0.4644594971239318 0.6196204656380215
H 0.1197713747653305 0.4644592284996519 0.8696208004795722
H 0.1197701585341059 0.4644588746956277 0.1196214538644045
H 0.1197694599694919 0.4644594302015744 0.3696212486899932
H 0.1197710838240593 0.4644595055333606 0.6196204722728027
H 0.3697714520122036 0.4644592355131061 0.8696208192718355
H 0.3697702906941558 0.4644588922766784 0.1196214545545988
H 0.3697694592259674 0.4644594293796649 0.3696212777117637
H 0.3697711147493788 0.4644595071424816 0.6196204496432798
H 0.6197713687824307 0.4644592307389384 0.8696208135279506
H 0.6197701615947561 0.4644588732106931 0.1196214424058181
H 0.6197694418467101 0.464459427355946 0.3696212607124388
H 0.6197711156584393 0.4644595055442239 0.6196204589951464
H 0.7610463062562089 0.4446647777699094 0.7517076091414532
H 0.7610489508236868 0.4446679747009521 0.001715229624510978
H 0.7610440729269049 0.4446615370774396 0.2516999300453619
H 0.7610424433017929 0.4446568163768512 0.5016948419188828
H 1.011046300911411 0.4446647579529621 0.7517075079025887
H 1.011048847228269 0.444667854825761 0.001714947432490191
H 1.011044047097065 0.44466145563611 0.2516997603841078
H 1.011042455763363 0.4446568439121996 0.5016949365399256
H 0.2610463566888557 0.4446648826863621 0.7517077737233518
H 0.2610488847741382 0.4446678716124395 0.001715049769311846
H 0.2610441152584191 0.4446616018942514 0.2517000259591712
H 0.2610424081915635 0.4446567444040013 0.5016947482709799
H 0.5110463103340001 0.4446648484264578 0.7517076874810888
H 0.5110488455541312 0.4446677727534979 0.001714811047923186
H 0.5110440674029678 0.4446615467749117 0.2516999228121717
H 0.5110424292523746 0.44465675780786 0.5016947587619491
H 0.7213308244528726 0.4437050683352847 0.8536980186264259
H 0.7213240635006957 0.443702762880102 0.1036900435424784
H 0.721346149954741 0.4437103941518341 0.3537150861247922
H 0.7213325283786767 0.443705578498694 0.6036988464632201
H 0.9713310116411976 0.4437051380215785 0.8536983700113191
H 0.9713242183488699 0.4437028294160046 0.1036903639404185
H 0.9713461879001756 0.4437104070069371 0.3537151694358271
H 0.9713324476008257 0.4437055521693856 0.6036987207212169
H 0.2213308983144313 0.4437050932630811 0.8536981433655456
H 0.2213240301424299 0.4437027553098767 0.1036899939876804
H 0.2213462074906343 0.4437104046903332 0.3537151773701715
H 0.2213324259134917 0.4437055395888839 0.6036986644980497
H 0.4713309896859414 0.4437051304162554 0.8536983355992945
H 0.4713242017875867 0.4437028273933252 0.1036903342929597
H 0.4713462160175859 0.4437104189279003 0.3537152154758603
H 0.4713324736336553 0.4437055510996245 0.6036987334530673
Al 0.6588206984495063 0.1302760387939232 0.7500413953704573
Al 0.6588206692910193 0.1302759383212665 1.000041208351775
Al 0.6588207758757261 0.1302760697247875 0.2500414377433368
Al 0.6588206978799636 0.1302756810989081 0.5000412733034912
Al 0.9088206965487187 0.1302760330635876 0.7500414006935402
Al 0.9088206656147824 0.1302759329135767 1.000041206470517
Al 0.9088207750596001 0.130276062097266 0.250041440664212
Al 0.9088206925886805 0.1302756735698145 0.500041272520905
Al 0.1588206960523199 0.1302760361734164 0.750041402458734
Al 0.1588206621690663 0.1302759269998199 1.000041207435796
Al 0.1588207710480166 0.1302760619508227 0.2500414355053885
Al 0.1588206894877036 0.1302756728540984 0.5000412700010469
Al 0.4088206960265106 0.1302760379039112 0.7500414010096303
Al 0.4088206631165812 0.1302759296821165 1.000041211839362
Al 0.4088207695514754 0.1302760663700381 0.2500414365832874
Al 0.4088206930955891 0.1302756774086524 0.5000412719111291
Al 0.6585992485150253 0.3185053262116941 0.7505303555757943
Al 0.6585991165716198 0.3185053090249199 1.000530470790761
Al 0.6585992523194543 0.3185055870486515 0.2505306053582452
Al 0.6585993256780325 0.3185042606783595 0.50053068645179
Al 0.9085992583564099 0.3185053306258239 0.7505303489683998
Al 0.9085990890851149 0.3185053221238401 1.000530468484539
Al 0.9085992538731201 0.318505590496896 0.2505306081402642
Al 0.9085993187547279 0.3185042743952336 0.5005306898011325
Al 0.1585992678671494 0.3185053369176878 0.7505303522353286
Al 0.1585991041405627 0.318505321040618 1.000530471862761
Al 0.1585992752677257 0.3185055976397719 0.2505306054827466
Al 0.1585993123252172 0.3185042698915211 0.5005306870578193
Al 0.4085992499752122 0.3185053436863208 0.7505303515407452
Al 0.4085990998102396 0.3185053188453646 1.000530467515679
Al 0.4085992524566337 0.3185056031825299 0.25053060656787
Al 0.4085993221653086 0.3185042644861975 0.5005306886444779
Al 0.6612800966660584 0.06803053163957702 0.6261506565320202
Al 0.6612800656339436 0.06803075014914195 0.8761505757902799
Al 0.6612800180341093 0.06803030891194581 0.1261505812001607
Al 0.6612800031992175 0.06803078927206452 0.376150490510693
Al 0.911280097582993 0.0680305296888765 0.6261506554378768
Al 0.9112800687182065 0.0680307498423641 0.876150577195854
Al 0.9112800193932563 0.06803030683145593 0.126150582830728
Al 0.9112800049564941 0.06803078805177119 0.376150490664125
Al 0.161280092269668 0.0680305260772759 0.6261506562669039
Al 0.1612800686384716 0.06803075064497133 0.8761505754585041
Al 0.1612800129230061 0.06803030913728325 0.1261505854593027
Al 0.161280000230322 0.06803078654916665 0.3761504896262136
Al 0.4112800953640678 0.06803052355175995 0.6261506574525426
Al 0.4112800694147618 0.06803074571964943 0.876150574162019
Al 0.411280014731814 0.06803030517542205 0.1261505844639971
Al 0.4112800020671348 0.06803078288205976 0.3761504898831427
Al 0.658867347411549 0.2548077441571413 0.7503439703604631
Al 0.6588674059651956 0.2548076755138458 1.000343908750433
Al 0.6588670839240101 0.2548078464332427 0.2503442886024101
Al 0.6588674478829714 0.2548070734364059 0.5003439138029835
Al 0.9088673489759737 0.2548077424369897 0.7503439684546563
Al 0.9088673898471549 0.2548076816694057 1.000343905646849
Al 0.9088670814479924 0.2548078437441936 0.2503442889181348
Al 0.9088674423595899 0.2548070806797477 0.5003439162043968
Al 0.1588673564943044 0.2548077489702436 0.750343968482058
Al 0.1588673954730098 0.2548076798063739 1.000343909194172
Al 0.1588670915170286 0.2548078464770491 0.2503442851962753
Al 0.158867444476182 0.2548070782473896 0.5003439166522562
Al 0.4088673510217627 0.2548077588304763 0.750343967470484
Al 0.4088673987921716 0.2548076817859624 1.000343909129448
Al 0.408867084514846 0.254807858022435 0.2503442855214105
Al 0.4088674488383719 0.254807078619224 0.5003439138096816
Al 0.7211329454224603 0.2247360248589911 0.6564682585358035
Al 0.7211329454711728 0.2247362538421284 0.906468121145993
Al 0.7211330139329879 0.2247356486589612 0.1564683450533926
Al 0.7211329398738731 0.2247365044934663 0.4064678733344338
Al 0.9711329485564396 0.2247360300386527 0.6564682578201207
Al 0.9711329398447469 0.2247362579512114 0.9064681202091738
Al 0.9711330182587931 0.2247356492913273 0.1564683487709616
Al 0.9711329384386027 0.2247365049797895 0.4064678717252252
Al 0.2211329504960713 0.2247360266346118 0.6564682560674405
Al 0.2211329401674649 0.2247362548960106 0.9064681185774253
Al 0.2211330179636643 0.224735645640089 0.1564683452211678
Al 0.2211329439903787 0.2247365079168455 0.4064678765603622
Al 0.4711329508228576 0.2247360333681787 0.6564682560146429
Al 0.4711329520726674 0.2247362650562183 0.9064681227004967
Al 0.4711330217145295 0.2247356572723192 0.156468343427859
Al 0.4711329476809814 0.2247365141424842 0.4064678766641928
Al 0.719155890189329 0.415579875320488 0.6611157996409104
Al 0.7191568734712012 0.4155797442535095 0.9111163310231254
Al 0.7191562585972937 0.415579304345737 0.1611140041655181
Al 0.7191515453004228 0.4155805452139096 0.4111192974622467
Al 0.96915589619631 0.4155798840332612 0.6611157709421291
Al 0.9691567904131563 0.4155797538286131 0.9111164248887677
Al 0.9691562440992726 0.4155793076254342 0.161114078464054
Al 0.9691515446585838 0.4155805357712788 0.411119311443813
Al 0.2191559582735296 0.4155798696895843 0.6611157472466094
Al 0.2191568096382037 0.4155797533076852 0.9111163725849024
Al 0.2191562998672535 0.4155793072964468 0.1611139816391041
Al 0.2191514957738323 0.4155805451534182 0.411119324492227
Al 0.469155909088423 0.4155798713158708 0.6611157700801724
Al 0.4691567810178928 0.415579759903683 0.9111164215381125
Al 0.4691562530213096 0.4155792978221978 0.1611140636810804
Al 0.4691515082728478 0.4155805423603832 0.4111193307240575
Al 0.7214504084195037 0.1604477824437352 0.6564339445115192
Al 0.7214504312199598 0.1604480100341816 0.9064337610821919
Al 0.7214503798290226 0.1604474945280016 0.1564339625726859
Al 0.7214504139355672 0.1604480926899081 0.4064336564624155
Al 0.9714504095789865 0.1604477744955048 0.6564339444791367
Al 0.971450428657461 0.1604480070095339 0.9064337596701162
Al 0.971450383909807 0.1604474833344132 0.1564339656317602
Al 0.9714504143509654 0.1604480835189312 0.4064336572902219
Al 0.2214504060440301 0.1604477792766509 0.6564339430466301
Al 0.221450421421144 0.1604480067454183 0.9064337570678302
Al 0.221450376296315 0.1604474885680894 0.1564339644658475
Al 0.2214504117028767 0.1604480882654515 0.4064336566543751
Al 0.4714504129603889 0.1604477809663155 0.6564339445892869
Al 0.4714504314527209 0.160448003514604 0.9064337596257147
Al 0.471450382353612 0.1604474923862795 0.1564339618853222
Al 0.4714504181440615 0.1604480885703203 0.4064336570848137
Al 0.72030782092984 0.3489569247257437 0.657256963681917
Al 0.7203076453517088 0.3489568250466771 0.9072573673247907
Al 0.7203079732321326 0.3489558066586955 0.1572572567640263
Al 0.720307060799288 0.3489580421572785 0.4072572365033766
Al 0.9703078266835148 0.3489569318281162 0.6572569611081132
Al 0.9703076339148927 0.3489568500399599 0.9072574073418841
Al 0.9703079943416144 0.3489558247490209 0.1572572790568247
Al 0.9703070566569848 0.3489580449424732 0.4072572405820478
Al 0.2203078396392756 0.3489569172119856 0.6572569425365828
Al 0.2203076290758605 0.3489568439537639 0.9072573921758648
Al 0.2203079945873113 0.3489558150131411 0.1572572415708663
Al 0.2203070425633852 0.3489580544510459 0.4072572536983977
Al 0.4703078249777923 0.3489569231208199 0.6572569551392202
Al 0.4703076392828724 0.3489568554061825 0.9072574124673671
Al 0.4703079879375253 0.3489558172380214 0.1572572689918729
Al 0.4703070554669485 0.3489580472504019 0.4072572514276971
Al 0.8447015472256096 0.09828284502976452 0.6565952246251291
Al 0.8447015421578985 0.09828306217923052 0.9065951206736125
Al 0.8447015479873031 0.09828268194815255 0.1565952149129805
Al 0.844701477905942 0.09828302239482033 0.4065950769367944
Al 0.09470154674462999 0.09828284480753569 0.6565952251250625
Al 0.09470153926069519 0.09828306055164553 0.906595119760686
Al 0.09470154466721559 0.09828268251498135 0.156595215082234
Al 0.0947014752136755 0.09828302162464234 0.4065950761710755
Al 0.344701545307538 0.09828284564192215 0.6565952279515375
Al 0.3447015333038487 0.09828305627576601 0.9065951179943201
Al 0.3447015372441045 0.09828268259368456 0.1565952143285816
Al 0.3447014729673762 0.09828302043164758 0.4065950751398543
Al 0.5947015539755016 0.09828284862903403 0.656595226880277
Al 0.5947015407374492 0.09828306042724611 0.9065951178933317
Al 0.5947015497580547 0.09828268479044996 0.1565952133317141
Al 0.5947014787287007 0.09828302461954684 0.4065950749776824
Al 0.8440416102152355 0.286146421557585 0.6570769979528222
Al 0.8440414334185101 0.2861467205333159 0.9070770106598568
Al 0.8440417411936632 0.2861458552363237 0.157077075690681
Al 0.8440416326100648 0.2861466966121441 0.4070767823610364
Al 0.09404161593881616 0.2861464264516417 0.6570769925561264
Al 0.09404143112009532 0.2861467245999334 0.9070770139646752
Al 0.09404174148533724 0.286145861565079 0.1570770737318268
Al 0.09404163285390635 0.2861466939924641 0.4070767894962445
Al 0.3440416122501223 0.2861464278882805 0.6570769929775773
Al 0.344041440245174 0.2861467276989721 0.9070770155833754
Al 0.3440417449733649 0.2861458618906939 0.1570770700071618
Al 0.3440416397589897 0.2861466961268916 0.4070767911872433
Al 0.5940416063872248 0.2861464180214152 0.6570769973771362
Al 0.5940414385521104 0.2861467235663444 0.9070770126286823
Al 0.5940417335673573 0.2861458530327636 0.1570770762195528
Al 0.5940416364469778 0.2861466899864117 0.4070767841202262
Al 0.688431775004009 0.09776013243931539 0.6877181052615571
Al 0.6884317716869348 0.09776032529318851 0.9377179827510381
Al 0.6884317950554014 0.09775986770047877 0.1877180962857793
Al 0.688431707182139 0.0977603221374418 0.4377179386118771
Al 0.9384317747174965 0.09776012926224369 0.6877181051529421
Al 0.9384317732224615 0.09776032396370864 0.9377179826786511
Al 0.9384317965070234 0.09775986461821029 0.1877180953121363
Al 0.9384317059788894 0.09776031793442094 0.4377179395868986
Al 0.1884317694663955 0.09776012940177017 0.6877181069437013
Al 0.1884317680619062 0.0977603223278259 0.9377179818733774
Al 0.1884317913229089 0.09775986593860307 0.1877180969231229
Al 0.1884317003694461 0.09776032103155573 0.4377179409403386
Al 0.4384317735502354 0.09776012586623888 0.6877181062216368
Al 0.4384317700336252 0.09776031733447377 0.9377179804064862
Al 0.4384317940820202 0.09775986103703239 0.1877180967477703
Al 0.4384317046104684 0.09776031773556242 0.4377179384058432
Al 0.685968569320772 0.2859939671426678 0.6875013288055445
Al 0.6859683704144018 0.285993841888166 0.9375013721355373
Al 0.685968507620182 0.2859934554189447 0.1875016380873127
Al 0.6859685664572125 0.2859943813030068 0.4375011377308892
Al 0.9359685804247881 0.285993979419716 0.6875013274860723
Al 0.9359683644858691 0.2859938507834443 0.9375013781004277
Al 0.9359685170871226 0.2859934708205253 0.1875016404217796
Al 0.9359685606125795 0.2859943829566997 0.4375011400022738
Al 0.1859685752755045 0.2859939699200616 0.687501324367196
Al 0.1859683617874836 0.2859938466803185 0.9375013761166784
Al 0.1859685161403964 0.2859934645899072 0.1875016346597538
Al 0.1859685629717167 0.2859943856913072 0.4375011441608038
Al 0.4359685700420506 0.2859939742163288 0.6875013262633728
Al 0.4359683792917782 0.2859938625972953 0.9375013800822274
Al 0.4359685163031933 0.2859934676469661 0.1875016403965448
Al 0.4359685704941909 0.2859943915299617 0.4375011413075761
Al 0.7484764028218727 0.1921054014211775 0.7187790864261955
Al 0.7484764064630295 0.1921054956375169 0.9687789309668743
Al 0.7484763271642946 0.1921050217047519 0.2187791908991858
Al 0.7484763691643485 0.1921054263362192 0.4687788346324466
Al -0.001523598369396244 0.1921054036407206 0.718779089100255
Al -0.001523594517079367 0.1921054904802633 0.9687789304286496
Al -0.001523670480552112 0.1921050190142552 0.218779193931525
Al -0.001523631752902898 0.1921054189940892 0.4687788353435009
Al 0.2484763980760893 0.1921054073887741 0.7187790882502763
Al 0.2484764026394146 0.192105489604973 0.9687789305064901
Al 0.2484763288338789 0.1921050230725163 0.2187791921378794
Al 0.2484763699765728 0.1921054243419249 0.4687788356500802
Al 0.498476405089838 0.1921054048569774 0.7187790866121359
Al 0.4984764107660659 0.1921054949714074 0.9687789327023995
Al 0.4984763322798185 0.1921050230607275 0.2187791921837956
Al 0.49847637303108 0.1921054269181891 0.468778836303487
Al 0.7464344531113645 0.3785332474134476 0.7209429339038508
Al 0.7464340038586457 0.3785332132184177 0.9709438114657449
Al 0.7464355005843596 0.3785333334997143 0.2209423731823898
Al 0.746434438995777 0.3785325016214438 0.4709430221117895
Al 0.9964345002930292 0.3785332718041556 0.720942908268341
Al 0.9964340360122191 0.3785332293008554 0.9709438187260869
Al 0.9964355689241443 0.3785333695363859 0.220942380796814
Al 0.9964344054606901 0.3785324758828266 0.470943040385019
Al 0.2464344616236932 0.3785332544051644 0.720942924694394
Al 0.2464340030218928 0.3785332148758058 0.9709438137606802
Al 0.2464355181443909 0.3785333484352982 0.2209423693607405
Al 0.2464344191584157 0.3785324890928743 0.4709430327808589
Al 0.4964344417488308 0.3785332425693155 0.720942924190108
Al 0.4964340792235797 0.3785332557794115 0.9709438028923236
Al 0.4964355262269219 0.3785333425904171 0.2209423883431228
Al 0.496434444100708 0.3785324942386822 0.4709430294801383
Al 0.6568544697477525 0.1926607859943287 0.6880459661344167
Al 0.656854496685398 0.1926609451323204 0.9380458272081506
Al 0.6568544369623749 0.192660600830277 0.1880460280713923
Al 0.6568545191193118 0.1926609139660299 0.4380457413757264
Al 0.9068544638032258 0.1926607802810654 0.6880459658764982
Al 0.9068544932833111 0.1926609424840977 0.9380458264352062
Al 0.9068544341893104 0.19266058774301 0.1880460309264244
Al 0.9068545123372488 0.1926609092465622 0.4380457410347348
Al 0.1568544702060257 0.192660783500484 0.688045965859067
Al 0.156854499467448 0.192660937739265 0.9380458263746696
Al 0.1568544341677521 0.1926605881514676 0.1880460264634211
Al 0.1568545190906236 0.1926609075224473 0.4380457423150626
Al 0.4068544668604573 0.1926607897223135 0.6880459662158803
Al 0.4068544965711306 0.1926609413836424 0.9380458278835384
Al 0.4068544307589619 0.1926606006923381 0.1880460241672582
Al 0.4068545187159018 0.1926609132652623 0.4380457430123112
Al 0.6551781371490988 0.3794250242098903 0.6881506504087672
Al 0.6551781648648582 0.3794253321099086 0.9381511802351503
Al 0.6551790226015395 0.379424495994294 0.1881505936115958
Al 0.6551764580600337 0.3794239583872028 0.4381510706632362
Al 0.9051781523017699 0.379425031129554 0.6881506474060805
Al 0.9051781022602273 0.3794253252625145 0.9381511937657624
Al 0.9051790206039663 0.3794244807547945 0.1881506051871519
Al 0.9051764540447151 0.3794239644706236 0.4381510714612027
Al 0.1551781862079627 0.3794250364833165 0.6881506436460603
Al 0.1551781229647463 0.3794253323925751 0.938151188006546
Al 0.1551790619262031 0.3794245073449596 0.1881505916924252
Al 0.1551764173190188 0.379423960187892 0.4381510742419934
Al 0.4051781474663589 0.3794250389902869 0.6881506473179805
Al 0.4051781065547961 0.3794253189096319 0.9381511943526034
Al 0.4051790199381182 0.3794244916798578 0.1881506015612779
Al 0.4051764380880161 0.3794239502448714 0.4381510769862586
Al 0.8449110235739804 0.09498991528566492 0.7191358569735189
Al 0.8449109747529302 0.0949899540984508 0.9691357218644739
Al 0.8449111236345649 0.09498983759756469 0.2191358880764689
Al 0.8449109558983336 0.09498972651054548 0.4691357251300963
Al 0.09491102934561815 0.09498991773460748 0.7191358593986529
Al 0.09491097597510634 0.0949899487085184 0.9691357221026792
Al 0.09491112337852131 0.09498983840467373 0.2191358857121571
Al 0.09491095882359636 0.09498972454038847 0.469135724488672
Al 0.3449110243931036 0.09498991788282171 0.7191358613801293
Al 0.3449109653564247 0.09498994378124641 0.9691357233153549
Al 0.3449111120877547 0.09498983804877534 0.2191358862714747
Al 0.3449109503965436 0.09498972381524977 0.469135722675266
Al 0.5949110341609541 0.09498991852802072 0.7191358586691885
Al 0.5949109777513414 0.09498995048000118 0.9691357227265955
Al 0.5949111269435559 0.09498983960856947 0.2191358877180524
Al 0.5949109612429798 0.09498972802190278 0.4691357231730544
Al 0.8444385415437775 0.2862712380759221 0.7196011063375823
Al 0.8444384633000971 0.2862713169277541 0.969601167310592
Al 0.8444385179494998 0.2862710803210942 0.2196013648654208
Al 0.8444386509190541 0.2862707574164929 0.4696009624783133
Al 0.09443855416605805 0.2862712489386346 0.7196011047079361
Al 0.09443847075600433 0.286271322218265 0.9696011675426752
Al 0.09443853388126287 0.2862710932130845 0.2196013656589211
Al 0.09443864593231982 0.2862707579623464 0.4696009663965655
Al 0.3444385468501872 0.2862712477366649 0.7196011057152115
Al 0.3444384651298442 0.2862713203353601 0.969601167411238
Al 0.3444385236163516 0.2862710935816618 0.2196013642462728
Al 0.3444386474745576 0.2862707548058897 0.4696009626636211
Al 0.5944385437222958 0.2862712394686122 0.7196011057114142
Al 0.5944384806236973 0.2862713226593662 0.9696011676998069
Al 0.5944385221143234 0.286271087998681 0.2196013660320583
Al 0.5944386517946371 0.2862707555722617 0.4696009609890746
Al 0.7511802714908945 0.09772752192011325 0.6253524449246369
Al 0.7511801964567263 0.09772769388385837 0.8753523764981662
Al 0.7511802474098912 0.09772726252866928 0.1253524544171162
Al 0.7511801016155868 0.09772772605070322 0.3753523458620917
Al 1.001180269610839 0.09772751638764454 0.625352444300544
Al 1.00118019689195 0.09772769420629691 0.8753523766396158
Al 1.0011802433215 0.09772725567377193 0.1253524560728697
Al 1.001180100051074 0.0977277211086203 0.3753523478392118
Al 0.2511802657366772 0.09772751897634718 0.6253524456388598
Al 0.2511801949226539 0.09772769437868568 0.8753523749659819
Al 0.2511802378187497 0.09772725993522038 0.1253524581654116
Al 0.2511800967543559 0.09772772117283794 0.3753523463764231
Al 0.5011802720139843 0.09772751817716628 0.6253524461147091
Al 0.501180199817336 0.09772768864715733 0.8753523746672778
Al 0.5011802455505883 0.09772725954898208 0.1253524569069744
Al 0.5011801031802866 0.09772771838966596 0.3753523458042756
Al 0.7522947139481658 0.2869332917646736 0.6263149427729422
Al 0.7522947903290814 0.2869335549512975 0.8763148479723286
Al 0.7522952742081496 0.2869325598501785 0.1263148032267819
Al 0.7522943123687926 0.2869344442957881 0.3763147664570635
Al 0.002294717695311808 0.2869333015460702 0.6263149438453909
Al 0.002294784236061262 0.2869335776538009 0.8763148548658417
Al 0.002295281479134309 0.2869325754528027 0.1263148086089248
Al 0.002294314863910233 0.2869344519653862 0.3763147663223912
Al 0.2522947200102238 0.2869332862086269 0.62631493821926
Al 0.2522947840520084 0.286933572905571 0.8763148499239398
Al 0.252295282261932 0.2869325616075579 0.1263148007161026
Al 0.252294312682582 0.2869344569847229 0.3763147725713314
Al 0.5022947148093129 0.28693329474143 0.6263149384446408
Al 0.5022947880670936 0.2869335825142887 0.8763148571468414
Al 0.5022952818116595 0.2869325699136359 0.1263148046497633
Al 0.5022943145231186 0.2869344578012796 0.3763147701901681
Al 0.656458471760796 0.1925917560213156 0.6254548972219565
Al 0.656458440090705 0.1925921000643044 0.8754547725723716
Al 0.6564584355356018 0.1925914335078587 0.1254548449888523
Al 0.6564584254691579 0.192592218434733 0.3754546805411305
Al 0.9064584642925022 0.1925917526947633 0.6254548952339181
Al 0.9064584367641808 0.1925921002761664 0.8754547744109841
Al 0.9064584398326762 0.1925914286122406 0.1254548470221479
Al 0.9064584175689483 0.1925922156118211 0.3754546796726441
Al 0.1564584641777198 0.1925917536896474 0.6254548960618754
Al 0.156458432807165 0.192592099415156 0.8754547733058212
Al 0.15645843501077 0.1925914275615229 0.1254548486988717
Al 0.1564584167047053 0.192592215665613 0.3754546812749874
Al 0.4064584721069336 0.1925917606398999 0.6254548970234564
Al 0.4064584381234166 0.1925921020171417 0.8754547715248687
Al 0.406458434193628 0.1925914351048316 0.1254548457260922
Al 0.4064584259789632 0.1925922213718296 0.3754546816530484
Al 0.6563565789430369 0.3827395368753603 0.7506763714200736
Al 0.6563555684651174 0.3827395856285122 1.000676854652994
Al 0.6563582647117326 0.3827401200983478 0.250676304265791
Al 0.6563572866360845 0.3827380552683186 0.5006765679662408
Al 0.9063566164440059 0.382739542868095 0.7506763653583269
Al 0.9063554890445 0.3827396075410675 1.000676850161104
Al 0.9063582640412093 0.3827401263068279 0.2506762998905664
Al 0.9063572589480831 0.3827380639826633 0.5006765700689089
Al 0.1563566365859941 0.3827395461353481 0.7506763726865704
Al 0.1563555273380146 0.3827395925088551 1.000676850126103
Al 0.1563583144923913 0.3827401277833691 0.2506763108275235
Al 0.1563572297595623 0.3827380614729373 0.500676563368411
Al 0.4063565812513311 0.3827395536166632 0.7506763762447703
Al 0.4063555095672611 0.3827395952805031 1.000676840158075
Al 0.406358241181935 0.3827401339501063 0.2506763083032054
Al 0.4063572614889618 0.3827380503673528 0.5006765676021198
Al 0.8150056635518143 0.1927699780550365 0.6575085463663131
Al 0.8150056442272965 0.1927701968068523 0.9075084318854032
Al 0.8150057827972091 0.1927696457409768 0.1575085902985225
Al 0.8150056318130381 0.1927700572428626 0.4075083126980854
Al 0.06500566718670939 0.1927699788739327 0.6575085455927271
Al 0.06500564584923949 0.1927701962319897 0.9075084290349205
Al 0.0650057835386698 0.1927696417756253 0.1575085899243385
Al 0.06500563617959333 0.1927700536179124 0.4075083122465616
Al 0.3150056610076918 0.1927699826921282 0.6575085443052983
Al 0.315005642056385 0.192770195682569 0.9075084296319701
Al 0.3150057807884748 0.1927696482194866 0.1575085899379779
Al 0.315005633961417 0.1927700613606682 0.4075083142521632
Al 0.5650056695628136 0.1927699778425558 0.657508543577191
Al 0.5650056496999075 0.1927701951700368 0.9075084319859689
Al 0.5650057912067823 0.1927696491113991 0.1575085894709718
Al 0.5650056396617045 0.1927700600772156 0.4075083129928894
Al 0.8138359302617815 0.3804751436702521 0.6580829327812087
Al 0.813836425265226 0.3804744913092213 0.9080832782684519
Al 0.8138363368313898 0.3804737257641159 0.1580835122983639
Al 0.8138331001861641 0.3804786322905042 0.408083449808851
Al 0.06383594877097519 0.380475131203753 0.6580829315994493
Al 0.0638363715487088 0.3804745604798779 0.9080833115392729
Al 0.06383632549284535 0.3804737782192627 0.158083540777169
Al 0.06383308320144032 0.3804786219815833 0.4080834465998364
Al 0.3138359664178375 0.3804751043269803 0.6580829108981615
Al 0.3138363897401603 0.3804745281247321 0.9080832980146695
Al 0.3138363603308069 0.3804737169369558 0.1580835032487406
Al 0.3138330712496084 0.3804786518539449 0.4080834607898536
Al 0.5638359353663364 0.3804751199468139 0.658082914957815
Al 0.5638363838922621 0.3804745663486421 0.9080833229414506
Al 0.5638363157398274 0.3804737523826752 0.1580835273142726
Al 0.5638330759884049 0.3804786428763758 0.4080834618809163
Al 0.7807601039513785 0.1305618261564573 0.6882237225631285
Al 0.7807600687437772 0.1305619751962233 0.9382235759815732
Al 0.7807601604123927 0.1305615975689388 0.1882237877696336
Al 0.7807599833368413 0.130561850897703 0.438223526557816
Al 0.0307601071924249 0.1305618235676917 0.6882237238309279
Al 0.03076007116056948 0.1305619698500855 0.9382235742268744
Al 0.03076016305470209 0.1305615934396407 0.1882237879409897
Al 0.03075998974316167 0.1305618454939199 0.4382235280663594
Al 0.2807601037945948 0.1305618266521042 0.6882237258177586
Al 0.2807600650968289 0.1305619674212905 0.9382235747225547
Al 0.2807601562452566 0.130561597039511 0.1882237871156191
Al 0.2807599856541112 0.1305618499780602 0.4382235264939388
Al 0.5307601146343603 0.1305618257285081 0.6882237258796725
Al 0.5307600747853172 0.1305619684663684 0.938223577103194
Al 0.5307601693807268 0.130561596561589 0.188223787367139
Al 0.5307599921262373 0.1305618501606081 0.4382235269105519
Al 0.779420797680653 0.3182788897320787 0.6886597644698019
Al 0.7794205677984589 0.3182789163466568 0.9386601506850886
Al 0.7794210949728706 0.3182782377238879 0.1886601775780645
Al 0.7794206960601325 0.3182792413807877 0.4386594001775511
Al 0.02942080846807981 0.3182788969608881 0.6886597593594416
Al 0.02942056944941687 0.3182789299131868 0.9386601594366774
Al 0.02942111567946217 0.3182782565484386 0.1886601848439546
Al 0.02942068423523871 0.3182792386993673 0.4386594034461339
Al 0.279420806833278 0.3182788910137569 0.6886597597800296
Al 0.2794205640938693 0.318278930314777 0.9386601536827163
Al 0.2794211065528972 0.3182782483111889 0.1886601713652225
Al 0.2794206875961753 0.3182792444719519 0.4386594054077866
Al 0.5294207948576509 0.318278886228414 0.6886597597398261
Al 0.5294205814838063 0.3182789369389551 0.938660157400227
Al 0.529421102927745 0.3182782434783258 0.1886601820078083
Al 0.5294206956676186 0.3182792401125308 0.438659404085046
Al 0.7784614718173091 0.06790836618293665 0.6870255108327573
Al 0.7784614440583246 0.06790849639807152 0.9370253396290565
Al 0.7784615393660879 0.06790815910439954 0.1870255582630166
Al 0.7784613979875472 0.06790836980437032 0.4370252723723179
Al 0.02846147037072781 0.06790836498430335 0.687025512642189
Al 0.02846144456171076 0.06790849705740058 0.9370253388706328
Al 0.02846153740433514 0.06790816301340533 0.1870255572792147
Al 0.0284613948696825 0.06790836975220853 0.437025272415124
Al 0.2784614702861504 0.06790836293180344 0.6870255147809917
Al 0.2784614428001353 0.06790849389137447 0.9370253380764457
Al 0.2784615362061939 0.06790816176635456 0.1870255589876824
Al 0.2784613932467914 0.06790836886508633 0.4370252705653936
Al 0.5284614752368131 0.06790836563732841 0.687025513030974
Al 0.5284614444383097 0.06790849382328873 0.9370253385669685
Al 0.5284615416209614 0.06790815781579285 0.1870255587649568
Al 0.5284613999841526 0.0679083686303403 0.4370252710413792
Al 0.7797966975754653 0.2541227619446579 0.6885228170884926
Al 0.7797966704294548 0.2541228774120595 0.9385228202408564
Al 0.7797966654826066 0.2541222947873385 0.1885230869435245
Al 0.7797968066142269 0.254122919904727 0.4385223160183631
Al 0.02979670748909835 0.2541227715122615 0.6885228149999467
Al 0.02979666864055351 0.2541228868484736 0.9385228207567893
Al 0.02979667208813262 0.2541223045591512 0.1885230891300025
Al 0.02979680912769193 0.254122922271018 0.438522323159988
Al 0.279796703724772 0.2541227685270964 0.6885228142083659
Al 0.2797966682926404 0.2541228850937628 0.9385228202863247
Al 0.2797966726504542 0.2541223026099524 0.1885230833183765
Al 0.2797968103101218 0.2541229248200365 0.4385223211116292
Al 0.5297967054081386 0.25412276688833 0.6885228159785911
Al 0.5297966826129497 0.2541228920427769 0.9385228231750086
Al 0.5297966747146587 0.2541223050694945 0.1885230891344019
Al 0.5297968131156398 0.2541229256148239 0.4385223172751676
Al 0.8420112500101206 0.2239365231329705 0.7196712845024096
Al 0.8420113044632886 0.2239365770913783 0.9696711750851434
Al 0.8420112253103957 0.2239363906728906 0.2196715169570011
Al 0.8420111562275781 0.2239362480872741 0.4696710268045269
Al 0.09201125777587821 0.2239365300865963 0.7196712827078285
Al 0.09201130686069851 0.2239365745524758 0.969671173750552
Al 0.09201122758886582 0.2239363900773345 0.2196715147807918
Al 0.09201116328737728 0.2239362448950505 0.4696710275321563
Al 0.342011253745283 0.223936534904443 0.7196712829297119
Al 0.3420113052640665 0.2239365775032566 0.9696711801992788
Al 0.3420112220462015 0.2239363995265205 0.2196715138802266
Al 0.3420111642887705 0.2239362511932258 0.4696710278280648
Al 0.5920112559034756 0.2239365257058599 0.7196712819769228
Al 0.5920113141759845 0.2239365795771766 0.96967117970498
Al 0.5920112288535861 0.223936398917931 0.2196715148781855
Al 0.5920111664440816 0.2239362498482626 0.4696710251126418
Al 0.8418174627497257 0.414669817001168 0.720557296110229
Al 0.8418164100039128 0.4146701298603879 0.9705576104828165
Al 0.8418192265300661 0.4146697399772392 0.2205571280161476
Al 0.8418180078236928 0.4146687155762722 0.4705590306025515
Al 0.09181753439649591 0.4146698278594846 0.7205572874857673
Al 0.09181651693914568 0.4146701288941264 0.9705576356715377
Al 0.0918193575365075 0.4146697594448426 0.22055714648283
Al 0.09181793428447081 0.4146686999702928 0.4705590357615336
Al 0.34181743343746 0.4146698269013162 0.720557275523898
Al 0.3418164409825782 0.4146701185271716 0.9705576252764955
Al 0.3418192246969115 0.4146697508477819 0.2205571146689956
Al 0.3418179936545908 0.4146686986080389 0.470559048926819
Al 0.5918174277866819 0.4146698134129291 0.7205572824759972
Al 0.5918166060061949 0.4146701382450187 0.9705576366523786
Al 0.5918192702330893 0.4146697452601929 0.2205571339216525
Al 0.5918180252019013 0.4146687059511637 0.4705590467987606
Al 0.842419571755483 0.1599087462364581 0.7195541306892616
Al 0.8424195975739204 0.1599087835006418 0.9695539700861254
Al 0.8424195754010073 0.1599086584201905 0.219554266314395
Al 0.8424196181780879 0.1599085369915928 0.4695539228620005
Al 0.09241957319853528 0.1599087463818966 0.7195541335420143
Al 0.09241959691945426 0.1599087723084903 0.9695539707878406
Al 0.09241957463302759 0.159908652733765 0.2195542643751398
Al 0.09241961963570733 0.1599085310711597 0.4695539232433104
Al 0.3424195712003221 0.159908752509246 0.7195541326609913
Al 0.3424195956562924 0.159908775753659 0.9695539723278584
Al 0.3424195704632113 0.1599086605916296 0.2195542611259154
Al 0.3424196203441383 0.159908540032189 0.4695539214169236
Al 0.5924195791431898 0.1599087485915966 0.7195541295226083
Al 0.5924196043381919 0.1599087821254994 0.9695539726890368
Al 0.5924195805313323 0.1599086619885244 0.2195542634884931
Al 0.5924196255973356 0.1599085405248421 0.4695539223919142
Al 0.8414436009025272 0.3489764837603707 0.7204347999983797
Al 0.8414431220980538 0.3489766535305767 0.9704353151601804
Al 0.8414442913902397 0.3489763311953121 0.2204348689755408
Al 0.8414434696058013 0.3489756955459811 0.4704349682413517
Al 0.09144362829023572 0.3489764922831674 0.7204347846430973
Al 0.09144314997697105 0.3489766590590848 0.9704353005301904
Al 0.09144433495150793 0.3489763514595094 0.2204348586972702
Al 0.09144344272414281 0.3489756870109476 0.4704349785734516
Al 0.341443598709999 0.3489764918363454 0.7204348004661496
Al 0.3414431279178001 0.3489766568734193 0.970435316016366
Al 0.3414442961109762 0.3489763430356725 0.2204348675534467
Al 0.341443459376869 0.3489756837646463 0.470434979564383
Al 0.5914435871795536 0.3489764734882796 0.7204347951674154
Al 0.5914431777297801 0.3489766565700052 0.9704352950256794
Al 0.5914443037671036 0.3489763295370631 0.2204348629447183
Al 0.591443475167853 0.3489756848532894 0.4704349714282945
Al 0.6588208028622839 0.1302758998212352 0.8750412242811326
Al 0.6588207646469771 0.1302753999346816 0.1250413647989769
Al 0.6588207265324695 0.130275964505264 0.3750411567364143
Al 0.6588208235776529 0.1302756293409772 0.6250413682107352
Al 0.9088208023014215 0.1302758962624963 0.8750412273706724
Al 0.9088207633341135 0.1302753904173958 0.1250413674132577
Al 0.9088207236332119 0.1302759562589672 0.3750411569749956
Al 0.9088208177911403 0.1302756213665454 0.6250413666084262
Al 0.1588208006351538 0.1302758962555067 0.8750412265041164
Al 0.1588207572908247 0.1302753891315076 0.1250413670269498
Al 0.1588207225765651 0.1302759565260825 0.3750411561893371
Al 0.1588208143771875 0.1302756217560342 0.625041364919944
Al 0.4088208008018357 0.1302758940030938 0.8750412254056633
Al 0.4088207568201567 0.1302753944469722 0.1250413657561363
Al 0.4088207242204985 0.1302759588748163 0.3750411589137891
Al 0.4088208172031875 0.130275626711871 0.6250413693013753
Al 0.6585992737209152 0.3185042764991626 0.8755310620175796
Al 0.6585995101868584 0.3185030747293043 0.1255310296666795
Al 0.6585991544336 0.3185046912495548 0.3755307555871474
Al 0.6585994107457195 0.318504010063286 0.6255309308367123
Al 0.9085992836291066 0.318504282612921 0.875531070467948
Al 0.9085995327176957 0.3185030844152438 0.12553103226739
Al 0.9085991595958375 0.3185047052668637 0.375530754087549
Al 0.9085994133668689 0.3185040172091179 0.6255309311713492
Al 0.1585992738812958 0.3185042831999434 0.8755310719456036
Al 0.1585995187166144 0.3185030894322911 0.1255310224595242
Al 0.1585991563101138 0.3185047038532638 0.3755307634717799
Al 0.1585994165283286 0.3185040186981851 0.6255309186409982
Al 0.4085992882065477 0.3185042867800698 0.8755310772661292
Al 0.408599530575621 0.3185030905355866 0.125531024320757
Al 0.4085991605464541 0.3185047021037131 0.3755307616002004
Al 0.4085994141803315 0.3185040225880509 0.6255309237002264
Al 0.6612800310502898 0.06803085089303801 0.7511505496914692
Al 0.6612799754424673 0.06803076284318768 0.001150362223223419
Al 0.6612801028219286 0.06803089094698485 0.2511506450435252
Al 0.6612799878702404 0.06803054575056183 0.5011503986579204
Al 0.9112800328842136 0.06803084705751299 0.7511505507940908
Al 0.9112799789554937 0.06803076373478895 0.0011503619761811
Al 0.9112801083172859 0.06803089157675293 0.2511506448481368
Al 0.9112799865979435 0.06803054644861681 0.5011504001619146
Al 0.1612800301932106 0.06803084800545819 0.7511505531187315
Al 0.1612799724976409 0.06803075969603781 0.001150362438211433
Al 0.1612801038006645 0.06803089179917506 0.2511506448474827
Al 0.1612799812170562 0.06803054334371511 0.5011503979908931
Al 0.4112800330412839 0.06803084832829892 0.7511505526459912
Al 0.4112799741297395 0.06803075631671752 0.001150363031909707
Al 0.4112801036241256 0.06803088836494003 0.2511506448487308
Al 0.4112799868898206 0.06803053872976439 0.5011503970785359
Al 0.6588670045485443 0.2548072966444478 0.8753439681067046
Al 0.6588672951998858 0.2548064444331032 0.1253439158554348
Al 0.6588671654392136 0.2548075282692879 0.3753437379246871
Al 0.6588670862321309 0.2548069396307239 0.625344086295656
Al 0.908867005587529 0.2548072971787071 0.8753439708623114
Al 0.9088672993254318 0.2548064476864929 0.1253439175905695
Al 0.9088671621503377 0.2548075298528241 0.3753437381738914
Al 0.9088670839388078 0.2548069426796754 0.6253440860077617
Al 0.1588670039260258 0.2548073004186381 0.8753439713966379
Al 0.1588672974868283 0.2548064479180149 0.1253439123755748
Al 0.1588671666649682 0.2548075321911935 0.3753437440335854
Al 0.1588670861329464 0.2548069424775642 0.6253440783113001
Al 0.4088670083498538 0.2548073075071137 0.8753439733340009
Al 0.4088673041610096 0.2548064525891888 0.1253439119678019
Al 0.408867171708973 0.2548075375625055 0.37534374335084
Al 0.4088670873346374 0.2548069484371837 0.6253440806868521
Al 0.7211328428984721 0.2247370049045976 0.7814680892113369
Al 0.7211328949049156 0.2247368573911368 0.03146792172203408
Al 0.7211327898530485 0.2247370094545557 0.2814682154363474
Al 0.7211329362476552 0.2247363593762928 0.5314681354191841
Al 0.9711328411903708 0.2247370024644028 0.7814680907002104
Al 0.9711328882366402 0.2247368587188375 0.03146791494857801
Al 0.9711327879155109 0.2247370055241263 0.2814682142554326
Al 0.9711329363958658 0.2247363680968268 0.5314681338228633
Al 0.2211328439766509 0.2247370069199491 0.7814680921419649
Al 0.2211328940324773 0.22473685466434 0.03146792022099662
Al 0.2211327957096927 0.2247370072800305 0.2814682153556453
Al 0.221132938130991 0.224736365429712 0.5314681324502604
Al 0.4711328463286871 0.2247370150795011 0.7814680861876644
Al 0.4711328970970076 0.2247368585689116 0.0314679207017404
Al 0.4711327974808804 0.2247370215134209 0.2814682135023632
Al 0.4711329400471046 0.2247363672433811 0.5314681335603115
Al 0.7191436674556052 0.4155821564130395 0.7861229391725038
Al 0.7191414456025552 0.4155823452869846 0.03612448059006565
Al 0.719146988540685 0.415581956885509 0.2861221619344743
Al 0.7191455691763889 0.4155814254498202 0.5361206082875127
Al 0.9691437406509367 0.4155821409035424 0.7861229063966204
Al 0.9691414650725795 0.4155823490970663 0.03612438693574924
Al 0.9691470206175632 0.4155819611496417 0.2861221053883659
Al 0.9691455187213716 0.4155814304644028 0.5361206352192172
Al 0.2191436848907385 0.4155821503427221 0.7861229872154822
Al 0.2191414343931823 0.4155823528980909 0.03612442802176115
Al 0.2191470173911085 0.4155819517033196 0.2861221878936948
Al 0.2191455306896971 0.415581435315701 0.536120580283881
Al 0.4691436801411697 0.4155821455311107 0.7861229581709732
Al 0.4691414924709346 0.4155823423208185 0.03612434404364355
Al 0.4691469850428896 0.4155819571692879 0.2861221483735937
Al 0.4691455623785199 0.4155814266545436 0.5361205850998874
Al 0.7214503494523232 0.1604483054573872 0.7814339712631185
Al 0.7214503875368971 0.160448135366766 0.03143378242187276
Al 0.7214503643544879 0.160448365818004 0.2814340266238349
Al 0.7214503867728652 0.1604478316616203 0.5314338825061795
Al 0.9714503496274416 0.1604482998105425 0.7814339744458245
Al 0.9714503884011857 0.1604481246618129 0.03143378187444575
Al 0.9714503617334783 0.1604483565868407 0.2814340278242988
Al 0.9714503896672887 0.160447823655776 0.5314338821909486
Al 0.22145034482693 0.160448305635906 0.7814339716777168
Al 0.2214503839822599 0.160448126674724 0.03143378407273281
Al 0.2214503582894519 0.160448358986178 0.2814340247367375
Al 0.2214503830736378 0.1604478301389124 0.5314338789492767
Al 0.4714503523025892 0.1604483017011641 0.7814339705005743
Al 0.4714503894119427 0.1604481285495359 0.03143378566793297
Al 0.4714503674596977 0.1604483612310828 0.2814340261474024
Al 0.4714503886788589 0.1604478303061932 0.5314338800896907
Al 0.7203065727891691 0.3489603642857222 0.7822565880756074
Al 0.7203062362680298 0.34896065273676 0.03225682896508957
Al 0.7203068414665711 0.3489602281339846 0.2822566328050891
Al 0.7203068345144342 0.3489589624776089 0.5322569934902984
Al 0.9703065977637673 0.348960348980179 0.782256571008156
Al 0.970306213411865 0.3489606490506325 0.03225680378629164
Al 0.9703068543112368 0.348960229853263 0.2822566218757206
Al 0.970306814514357 0.3489589781097143 0.5322570056178768
Al 0.2203065918073871 0.3489603686816815 0.7822565970388535
Al 0.2203062209655552 0.3489606625524913 0.03225682159748492
Al 0.2203068644088688 0.348960233707587 0.2822566393622659
Al 0.2203068135092207 0.3489589746051318 0.5322569910783045
Al 0.4703065732800813 0.3489603614348795 0.78225658627835
Al 0.4703062333008996 0.3489606407818781 0.03225679128535331
Al 0.4703068362900108 0.3489602309269498 0.2822566313674937
Al 0.4703068331657663 0.3489589644580168 0.5322569935936388
Al 0.8447014730746609 0.0982829934784544 0.7815951879864402
Al 0.8447014294925947 0.09828282448201001 0.03159507209257588
Al 0.8447014997682426 0.09828304568075691 0.2815952203860418
Al 0.844701491347374 0.09828271584324408 0.5315951204241028
Al 0.09470147396891321 0.09828299455895857 0.7815951898580483
Al 0.09470142419197364 0.09828282265986961 0.03159507372151234
Al 0.09470149705751067 0.09828304519529783 0.2815952188371207
Al 0.09470148738282579 0.09828271431532502 0.5315951176176495
Al 0.3447014699887141 0.09828299321528466 0.7815951881979201
Al 0.3447014183761828 0.09828282053614197 0.03159507394782878
Al 0.3447014931125505 0.09828304533979175 0.2815952191035006
Al 0.3447014857480861 0.09828271378285718 0.5315951178986839
Al 0.5947014744312747 0.09828299505918629 0.7815951855039338
Al 0.594701428685472 0.09828282485707951 0.03159507198032247
Al 0.5947015011228644 0.09828304826431242 0.281595219895085
Al 0.5947014956722134 0.09828271751267932 0.5315951195834313
Al 0.8440420947956451 0.2861469437602053 0.7820766716561127
Al 0.844042071664326 0.2861466520973954 0.03207663247586141
Al 0.8440418525782373 0.2861472609625967 0.2820768246313988
Al 0.8440420667941236 0.2861461884276116 0.532076796695535
Al 0.09404210162856322 0.2861469469536758 0.7820766724737579
Al 0.09404207172030099 0.2861466509999356 0.03207663078634972
Al 0.09404186575728132 0.2861472651197371 0.282076823455934
Al 0.09404206379579719 0.2861461895320385 0.5320767971498278
Al 0.3440420954616041 0.2861469558223922 0.7820766720116767
Al 0.3440420786858814 0.2861466529914955 0.03207663408186637
Al 0.3440418600687425 0.2861472697491685 0.2820768258427168
Al 0.3440420714850331 0.2861461864027727 0.5320767965974987
Al 0.5940420875948615 0.286146942956409 0.7820766707582739
Al 0.5940420843666941 0.2861466441151789 0.03207663297127248
Al 0.5940418528086928 0.2861472601571052 0.2820768230063443
Al 0.5940420717219324 0.2861461833866096 0.5320767976919307
Al 0.6884318115900026 0.09776028122916779 0.8127180143769351
Al 0.6884316650596266 0.09776015205129562 0.06271794593591305
Al 0.6884318210755167 0.09776039007432162 0.3127180439082051
Al 0.6884317483366177 0.09775995616177019 0.5627179920795761
Al 0.9384318126828189 0.09776027985043534 0.8127180154194537
Al 0.9384316637893081 0.09776014819064555 0.062717946181698
Al 0.9384318249822194 0.0977603857839431 0.3127180427149854
Al 0.9384317462040388 0.09775995274060913 0.5627179920532641
Al 0.1884318097964926 0.0977602813455019 0.8127180152544924
Al 0.188431655573754 0.09776014850363808 0.06271794759433288
Al 0.1884318209385723 0.09776038646326619 0.312718044642726
Al 0.1884317400426964 0.09775995431454826 0.5627179925805943
Al 0.4384318122410232 0.09776027435697333 0.812718012996379
Al 0.4384316603132319 0.09776014459490831 0.06271794635844261
Al 0.4384318205446849 0.09776038376466087 0.3127180446415769
Al 0.4384317464063363 0.09775995004549658 0.5627179914203315
Al 0.6859690334309889 0.2859959795737054 0.8125010789580299
Al 0.6859691741378136 0.2859957942944962 0.06250095944395931
Al 0.6859689583733075 0.2859958665413886 0.3125010631178796
Al 0.6859690383955881 0.2859950599535927 0.56250127639019
Al 0.9359690310815283 0.285995976689301 0.8125010762626883
Al 0.9359691632323592 0.2859957970927745 0.06250095138499302
Al 0.9359689607204645 0.2859958712553137 0.3125010611923349
Al 0.9359690373845639 0.2859950728916559 0.5625012764717422
Al 0.1859690317777727 0.2859959820893332 0.8125010809281031
Al 0.1859691689726968 0.2859957997622132 0.06250095692746531
Al 0.1859689675593841 0.2859958696490087 0.3125010683362845
Al 0.1859690384260393 0.2859950698830676 0.5625012743078355
Al 0.4359690285286146 0.2859959856688518 0.8125010769392955
Al 0.4359691727966359 0.2859957982707186 0.06250095199007763
Al 0.4359689638550243 0.2859958761648303 0.3125010644609809
Al 0.4359690408093397 0.2859950698755278 0.5625012739872162
Al 0.7484765654663391 0.1921056502504208 0.8437787947204926
Al 0.748476491460879 0.1921053497238066 0.09377878429810024
Al 0.7484766249557583 0.1921058618656835 0.3437787950157149
Al 0.7484764627778013 0.1921051039240041 0.5937789221510564
Al -0.001523439973909644 0.1921056479956449 0.8437787956082491
Al -0.00152350968671635 0.1921053440658771 0.09377878608872947
Al -0.001523375755355133 0.1921058580361467 0.3437787960193343
Al -0.001523533431770591 0.1921051025423508 0.59377892345729
Al 0.2484765592297752 0.1921056506535837 0.8437787934820049
Al 0.2484764917820824 0.1921053474059401 0.09377878661392378
Al 0.248476622787535 0.1921058589094868 0.3437787968484541
Al 0.2484764648010579 0.1921051081256659 0.5937789228637009
Al 0.4984765663818443 0.1921056477390129 0.8437787942814995
Al 0.4984764953702993 0.192105350626263 0.09377878530930168
Al 0.4984766288634038 0.1921058627825696 0.3437787964782972
Al 0.4984764668077856 0.1921051091126341 0.5937789240959759
Al 0.7464356465244391 0.3785322623014613 0.8459412413100406
Al 0.7464355444606251 0.3785315793652961 0.09594110792283717
Al 0.746434645443844 0.3785326450586861 0.3459422348318204
Al 0.7464360861151296 0.3785322213127464 0.5959409866849844
Al 0.9964356069923344 0.3785322319337873 0.8459412652082459
Al 0.9964354918317212 0.3785315565623806 0.09594109611550863
Al 0.9964346367200204 0.3785326412538005 0.3459422233073056
Al 0.996436096366716 0.3785322263453832 0.5959409917474059
Al 0.246435629813104 0.3785322488602549 0.8459412748039074
Al 0.2464355459295066 0.3785315947674056 0.09594108005761914
Al 0.2464346412663636 0.3785326364590247 0.3459422574885381
Al 0.2464361100582858 0.3785322385599214 0.5959409584451359
Al 0.4964355930183637 0.3785322267742481 0.845941279272875
Al 0.496435492485454 0.3785315563884746 0.09594108038831348
Al 0.4964346192990075 0.3785326257288942 0.3459422429992653
Al 0.4964361084318252 0.3785322357564892 0.5959409703572709
Al 0.6568543856128979 0.1926611990766406 0.813045881601323
Al 0.6568544603327359 0.1926608400007779 0.06304580517668518
Al 0.6568543893557531 0.1926612511359104 0.3130459066660223
Al 0.6568544328525053 0.1926606935259711 0.5630459117907278
Al 0.9068543829546514 0.1926611956011616 0.8130458868470093
Al 0.906854454253579 0.192660832709578 0.06304580500521902
Al 0.9068543832546158 0.192661242734507 0.3130459051231064
Al 0.9068544240585402 0.1926606887783739 0.5630459097228158
Al 0.156854388710174 0.1926611944459518 0.8130458861749359
Al 0.1568544607863505 0.1926608285186106 0.06304580759059068
Al 0.1568543871272348 0.192661240193248 0.3130459031787488
Al 0.1568544319435194 0.1926606915548772 0.5630459065388311
Al 0.4068543823327393 0.1926611994089849 0.8130458819237338
Al 0.4068544566852501 0.192660837967225 0.06304580773694599
Al 0.4068543823139648 0.192661250300749 0.3130459051642959
Al 0.4068544325132747 0.192660697453708 0.5630459088543557
Al 0.6551743451407394 0.3794229468536299 0.8131504509106611
Al 0.6551734341292825 0.3794220239553949 0.06315060181274897
Al 0.6551748962986769 0.3794241521623627 0.3131506604199459
Al 0.6551753892916836 0.3794226125219677 0.563150461703365
Al 0.9051744022087533 0.3794229512654426 0.8131504451857718
Al 0.9051734627963713 0.3794220514432062 0.06315059174485607
Al 0.9051749265554423 0.3794241694699468 0.313150653644969
Al 0.9051753630466204 0.3794226124456488 0.5631504640685997
Al 0.155174358671279 0.3794229444926052 0.8131504611716789
Al 0.1551734254698618 0.3794220420689303 0.06315059302559209
Al 0.1551749179617458 0.3794241554374603 0.3131506689044359
Al 0.155175368149956 0.379422619363169 0.563150454447215
Al 0.4051743674162457 0.3794229496827322 0.8131504585498519
Al 0.4051734742433178 0.3794220526221052 0.06315057964347606
Al 0.4051749038494956 0.3794241646268928 0.3131506632376659
Al 0.4051753912998106 0.3794226155301774 0.5631504557649978
Al 0.8449110754032871 0.0949897952136086 0.8441358059447133
Al 0.8449109956573841 0.09498938221418071 0.09413578860967993
Al 0.8449110067326443 0.09498991638121956 0.344135784028565
Al 0.8449111017945192 0.09498949714632904 0.5941358332016062
Al 0.09491107907712498 0.09498979685633793 0.8441358059280157
Al 0.09491099889680106 0.09498938140276647 0.09413579116909454
Al 0.09491100940718712 0.09498991425662481 0.3441357833139753
Al 0.09491110310671885 0.09498949681942552 0.5941358314415903
Al 0.3449110677963965 0.09498979210616763 0.8441358045566573
Al 0.3449109864991848 0.09498937988682975 0.09413579067472225
Al 0.3449110010570769 0.09498991334461986 0.344135784945858
Al 0.3449110986123247 0.09498949564572724 0.5941358332093591
Al 0.5949110780564638 0.09498979401588116 0.844135803998514
Al 0.5949109995795051 0.0949893843189214 0.09413578845400994
Al 0.5949110126577347 0.09498991917692982 0.3441357853665667
Al 0.594911112763299 0.09498949903877681 0.5941358346198135
Al 0.8444386251913077 0.2862710531818958 0.8446007655184977
Al 0.8444388424200194 0.2862702710275671 0.09460067590855167
Al 0.8444385369178212 0.2862714287355306 0.3446007469422516
Al 0.8444387182349831 0.2862705239750734 0.5946009307087438
Al 0.09443861926887778 0.2862710548296711 0.8446007678047269
Al 0.09443883484356122 0.2862702767941271 0.09460067425651338
Al 0.09443853908820521 0.286271434596333 0.3446007502431629
Al 0.09443871749371377 0.2862705327572286 0.5946009285618032
Al 0.3444386261083869 0.2862710603607223 0.8446007674207934
Al 0.3444388451267049 0.2862702752061347 0.09460067256724787
Al 0.344438541847018 0.2862714362631342 0.3446007531087548
Al 0.3444387190611196 0.2862705287538234 0.5946009250371528
Al 0.5944386142930997 0.2862710582902601 0.8446007674446083
Al 0.5944388335232504 0.2862702668083097 0.09460067322841938
Al 0.5944385355609232 0.2862714314472357 0.3446007479996867
Al 0.594438720906894 0.2862705256854113 0.5946009283203127
Al 0.75118009102109 0.09772792507009899 0.7503524521235202
Al 0.7511800614197053 0.09772778096066619 0.0003523245421990629
Al 0.7511801576268442 0.09772800534437164 0.2503524549819126
Al 0.7511801349799968 0.09772754749669521 0.5003523768957809
Al 1.001180088220591 0.09772792066038434 0.7503524542128006
Al 1.001180060690635 0.09772777615921532 0.000352325104880918
Al 1.00118015655605 0.09772800242197426 0.2503524556520913
Al 1.001180132825364 0.09772754207744294 0.5003523776771001
Al 0.2511800862229868 0.09772792526434576 0.7503524542956282
Al 0.2511800542796025 0.09772777515509913 0.0003523255295234827
Al 0.2511801534304045 0.09772800460020989 0.2503524562569693
Al 0.251180129380922 0.09772754392347215 0.5003523759098275
Al 0.5011800937852916 0.09772792164346135 0.7503524537500479
Al 0.5011800592372668 0.09772777242427534 0.0003523261741226704
Al 0.501180160046955 0.09772800157834048 0.250352455855689
Al 0.5011801359060652 0.09772754306480577 0.5003523755052846
Al 0.7522935858061125 0.2869356365193477 0.7513150708752711
Al 0.7522933161625375 0.2869358649772583 0.001315108293192997
Al 0.7522934993311559 0.2869354720986338 0.2513152883395847
Al 0.7522940795194138 0.2869346065028972 0.5013150058917468
Al 0.002293596066204523 0.2869356294744767 0.7513150664494569
Al 0.0022933065876459 0.2869358743446164 0.001315101242041576
Al 0.002293506387511357 0.2869354715797681 0.2513152859394718
Al 0.002294074151657526 0.2869346286243373 0.5013150116050682
Al 0.2522935916946879 0.2869356422636531 0.7513150719863176
Al 0.2522933105242003 0.2869358737751376 0.001315104595482755
Al 0.2522935137679436 0.2869354718672748 0.2513152906860592
Al 0.2522940730987342 0.2869346188674713 0.5013150071428792
Al 0.5022935861914604 0.2869356478176841 0.7513150691548575
Al 0.5022933179704342 0.2869358602181547 0.001315097413702748
Al 0.5022935015880817 0.2869354823598961 0.2513152904978946
Al 0.5022940783553769 0.286934612079822 0.501315005020735
Al 0.6564584629287253 0.1925922749330664 0.7504548766971226
Al 0.6564584950940816 0.1925921939224327 0.0004547314960008828
Al 0.6564584871370417 0.1925923379007632 0.2504549852305025
Al 0.6564584809972381 0.1925918080366948 0.5004547597192166
Al 0.9064584584938347 0.1925922730448294 0.7504548798295838
Al 0.9064584915778671 0.1925921938879866 0.0004547284022169152
Al 0.9064584822443454 0.1925923321838368 0.2504549857710909
Al 0.906458476488304 0.1925918079030379 0.5004547588909148
Al 0.156458461654929 0.1925922772385953 0.750454882147972
Al 0.1564584892594326 0.1925921878524892 0.0004547319549540586
Al 0.1564584780227878 0.1925923321462188 0.2504549837358731
Al 0.1564584730509289 0.1925918058013149 0.5004547593318631
Al 0.4064584673727457 0.1925922832227683 0.7504548781571566
Al 0.4064584913551311 0.1925921930764349 0.0004547333377021961
Al 0.4064584827852062 0.1925923423563974 0.2504549822596094
Al 0.40645847921672 0.19259181029217 0.5004547587098342
Al 0.6563619282083846 0.3827379830881512 0.8756764731578559
Al 0.6563617228056378 0.382736337827224 0.12567611395184
Al 0.656359531000648 0.3827384825114059 0.3756767201391712
Al 0.6563618349914943 0.3827378603959195 0.6256760567394501
Al 0.9063619576377485 0.3827379813138898 0.87567647856158
Al 0.9063617789217442 0.3827363337987101 0.1256761216758057
Al 0.9063595538511949 0.3827384935786117 0.3756767184026627
Al 0.9063618215902218 0.3827378631387539 0.6256760553282712
Al 0.1563619111287626 0.382737986463578 0.8756764834414092
Al 0.1563617402709859 0.3827363518751177 0.1256761067782824
Al 0.15635952209683 0.3827384892399199 0.3756767241045673
Al 0.1563618520191415 0.3827378664813149 0.6256760484204568
Al 0.4063619339168174 0.3827379728022929 0.8756764914847448
Al 0.4063617734112089 0.3827363424143436 0.1256761130425722
Al 0.4063595239756865 0.3827384815261841 0.3756767283768028
Al 0.4063618453613315 0.3827378675674465 0.6256760477548821
Al 0.8150054816314442 0.1927702203153477 0.7825084548490442
Al 0.8150055493017911 0.1927698939201993 0.03250832021060429
Al 0.8150053893555679 0.1927704661388692 0.2825085024045228
Al 0.8150056478546912 0.1927697181347024 0.5325084216178108
Al 0.06500548028433117 0.1927702190522723 0.7825084527344536
Al 0.06500554983756844 0.1927698876434657 0.03250831788335899
Al 0.06500539309152244 0.192770460059431 0.2825085009132755
Al 0.06500565171385497 0.1927697201847245 0.532508421155614
Al 0.3150054736989409 0.1927702235611767 0.7825084517701177
Al 0.3150055471226256 0.1927698927879467 0.03250832088157934
Al 0.3150053903583288 0.1927704657788805 0.2825085018296866
Al 0.3150056523951048 0.1927697264741012 0.5325084214929524
Al 0.5650054837342154 0.1927702187191774 0.7825084510709489
Al 0.5650055562281729 0.192769891450871 0.03250832090865841
Al 0.5650053955466809 0.1927704678734989 0.2825085009243618
Al 0.5650056567908004 0.1927697205480523 0.5325084209891465
Al 0.8138284517804928 0.3804854340714251 0.783082850606676
Al 0.8138269126693108 0.3804869741158845 0.03308331785443573
Al 0.813830418861387 0.3804834951678543 0.2830825212511042
Al 0.8138296296976069 0.3804829403595635 0.5330835102330241
Al 0.06382848567251743 0.380485383463502 0.783082824753377
Al 0.06382692435084936 0.3804869030629475 0.03308328554903274
Al 0.06383045411360577 0.3804834583454451 0.2830825031643356
Al 0.06382959872166163 0.3804829573492438 0.5330835226873242
Al 0.3138284478045315 0.3804854505963384 0.7830828508693169
Al 0.3138269129094523 0.3804869615443567 0.03308331038972005
Al 0.3138304323381789 0.3804834951476315 0.2830825225941379
Al 0.313829615499245 0.3804829441218813 0.5330835156415513
Al 0.5638284375110876 0.380485409697721 0.7830828402860022
Al 0.5638269539459493 0.3804868856614923 0.03308327315811329
Al 0.5638304180406862 0.3804834681321728 0.2830825088252729
Al 0.5638296347239085 0.380482929274131 0.5330835108420268
Al 0.7807600253824357 0.1305618471160896 0.8132236844753508
Al 0.7807599436923778 0.1305615789421191 0.06322358754509955
Al 0.7807600279668235 0.1305620030859299 0.313223669225917
Al 0.7807600628665486 0.1305614915534766 0.5632236847368518
Al 0.03076002899079946 0.1305618469112171 0.813223687314499
Al 0.03075994709331152 0.1305615707794565 0.06322359035835659
Al 0.03076003050302421 0.1305619984659499 0.3132236696843171
Al 0.03076006775603946 0.1305614870534913 0.563223681760138
Al 0.2807600220723815 0.1305618468108102 0.8132236829106693
Al 0.2807599414204254 0.1305615745509018 0.06322359283737375
Al 0.2807600271714806 0.1305619989311163 0.3132236695207123
Al 0.2807600635965197 0.1305614916706868 0.5632236819979874
Al 0.5307600326446223 0.1305618418011745 0.813223682409639
Al 0.530759951490845 0.1305615782122773 0.06322359267852655
Al 0.5307600367493724 0.13056199981817 0.313223670995229
Al 0.5307600732337886 0.1305614919114224 0.5632236862038955
Al 0.7794213048793146 0.3182805077956561 0.8136581528941137
Al 0.779421195528793 0.3182802783751115 0.06365796337238581
Al 0.7794210048283032 0.3182806446970711 0.3136584604466333
Al 0.779421357446352 0.3182795465904393 0.563658677974152
Al 0.02942130471965994 0.3182804998490554 0.8136581552295553
Al 0.02942117417922963 0.3182802767322512 0.06365795039578942
Al 0.02942100685846936 0.3182806464518379 0.3136584560359668
Al 0.0294213520720143 0.3182795564286686 0.5636586779945388
Al 0.2794213106899123 0.3182805144488203 0.8136581609835981
Al 0.2794211904504108 0.3182802879273153 0.06365795320456935
Al 0.2794210134642041 0.318280649685132 0.3136584667744723
Al 0.2794213565396922 0.3182795542093055 0.5636586711384298
Al 0.5294212933180156 0.3182805059832746 0.8136581551135489
Al 0.5294211826170997 0.3182802674792019 0.06365794678050936
Al 0.5294209975590624 0.3182806414703686 0.3136584572028582
Al 0.5294213616138097 0.3182795491359923 0.5636586767229311
Al 0.7784614710810783 0.06790829723961833 0.8120253580403435
Al 0.7784613791621452 0.06790807626658978 0.06202523435915865
Al 0.7784614390413286 0.06790844563904622 0.312025370903054
Al 0.7784614869102391 0.06790802203559552 0.5620253513864779
Al 0.02846147214229925 0.06790829889281923 0.8120253584472232
Al 0.02846137620788514 0.06790807774659172 0.06202523694928964
Al 0.02846143941024479 0.0679084466736701 0.3120253694411111
Al 0.02846148349138158 0.06790802204501808 0.5620253513765918
Al 0.2784614724694878 0.06790829971680103 0.8120253571986212
Al 0.2784613713838259 0.06790807607724147 0.06202523723254293
Al 0.2784614377856395 0.06790844417855933 0.3120253700691827
Al 0.2784614838662461 0.06790801717052587 0.5620253515000931
Al 0.5284614759577695 0.06790829804079294 0.8120253562927394
Al 0.5284613783623736 0.06790807584098829 0.06202523672876806
Al 0.5284614408280539 0.06790844452891338 0.3120253712484391
Al 0.5284614901760261 0.06790801801947942 0.5620253521331959
Al 0.7797967879436924 0.254123616566206 0.8135219470493698
Al 0.7797969391006887 0.2541232652245503 0.06352171530920971
Al 0.779796709192301 0.2541238171762321 0.3135221289170216
Al 0.7797968266736635 0.2541228558386855 0.5635222152108664
Al 0.02979678914434954 0.2541236169703071 0.8135219489708233
Al 0.0297969388220597 0.2541232685406478 0.0635217138612216
Al 0.02979671739449513 0.2541238206537852 0.3135221286576461
Al 0.02979682999605442 0.2541228677537588 0.5635222148985668
Al 0.2797967860355238 0.254123623951906 0.8135219461052615
Al 0.2797969436301143 0.2541232695900192 0.06352171588073111
Al 0.2797967184592395 0.2541238240896935 0.3135221333665393
Al 0.2797968297503252 0.2541228641538282 0.5635222097534275
Al 0.5297967883303303 0.2541236243084338 0.8135219463850075
Al 0.5297969499581678 0.2541232641578394 0.0635217143062717
Al 0.5297967206055992 0.2541238273859464 0.3135221292982281
Al 0.5297968350119991 0.2541228624525425 0.5635222138555664
Al 0.8420107909465904 0.223936580089096 0.8446709887629495
Al 0.8420108195400362 0.2239359678141765 0.09467090346451097
Al 0.8420109017212092 0.2239367847650215 0.3446709352411544
Al 0.8420109006011326 0.2239360764080356 0.5946711575145728
Al 0.09201079641927723 0.2239365787469881 0.8446709857656367
Al 0.09201082153168709 0.223935963590417 0.09467090184299182
Al 0.09201090729755149 0.2239367843254509 0.344670936066926
Al 0.09201090491307165 0.2239360808754053 0.5946711521809483
Al 0.3420107898547463 0.2239365843744562 0.8446709864335548
Al 0.3420108212293679 0.2239359688455596 0.09467090619165708
Al 0.3420109061716008 0.2239367917968867 0.3446709391562477
Al 0.342010904937753 0.2239360881914588 0.594671154662516
Al 0.592010791996198 0.2239365818772371 0.8446709848619516
Al 0.5920108274196014 0.2239359672877579 0.09467090327520437
Al 0.5920109101388642 0.2239367910657864 0.3446709335499779
Al 0.5920109104620697 0.223936081686799 0.5946711570758931
Al 0.8418211654416938 0.4146676139924059 0.8455604934867935
Al 0.8418214204627977 0.4146666639068689 0.09556136428568683
Al 0.8418189909537236 0.4146685349878868 0.3455597876879839
Al 0.8418217214868874 0.4146675967489538 0.5955600437800753
Al 0.09182104126459779 0.4146676006751785 0.8455604945584495
Al 0.09182129495542399 0.4146666504237797 0.09556133970960723
Al 0.09181895052629882 0.4146685270740503 0.3455597798622991
Al 0.09182175515071156 0.4146675935824987 0.5955600527688748
Al 0.341821115820448 0.4146676073258518 0.8455605142462737
Al 0.3418214315476809 0.4146666672801591 0.09556134196132948
Al 0.3418189566933859 0.4146685276381326 0.3455597998022342
Al 0.3418217783111615 0.4146675996616853 0.5955600323511536
Al 0.591821041319919 0.41466759490744 0.8455605026835522
Al 0.591821291812089 0.4146666451144563 0.09556133023400654
Al 0.5918189284454581 0.4146685184542033 0.3455597906659987
Al 0.5918217678199077 0.4146675996890646 0.5955600380353011
Al 0.8424196410731976 0.1599087314711805 0.8445540080338382
Al 0.8424196482001735 0.1599082448399288 0.09455395894003867
Al 0.8424196141538058 0.1599088605743171 0.3445539471357717
Al 0.8424196447371877 0.1599083469955517 0.5945540975158411
Al 0.09241964063070601 0.159908728657255 0.8445540090821626
Al 0.09241964895867792 0.1599082367261427 0.09455396112118937
Al 0.0924196137106604 0.1599088535732136 0.3445539480410215
Al 0.09241964601231377 0.1599083435556208 0.59455409491794
Al 0.3424196374775914 0.1599087285175181 0.8445540044627278
Al 0.3424196464894933 0.1599082467907298 0.09455396040656903
Al 0.342419613980119 0.1599088597070317 0.3445539477689867
Al 0.3424196449983215 0.1599083526033747 0.5945540965598343
Al 0.5924196448519263 0.1599087278221721 0.8445540038427565
Al 0.5924196543130907 0.1599082500736631 0.09455395846050356
Al 0.5924196218640654 0.1599088640886637 0.3445539471472859
Al 0.5924196535129609 0.1599083512103945 0.5945540998589958
Al 0.8414448817140822 0.3489755321439602 0.8454340415250046
Al 0.8414446262152225 0.3489745721824331 0.09543405558488667
Al 0.8414441170249932 0.3489761799146295 0.3454343266197727
Al 0.8414449523753801 0.3489751149204156 0.5954341969015344
Al 0.09144484786687833 0.3489755293381915 0.8454340650667037
Al 0.09144458074280962 0.348974575415036 0.09543406427931385
Al 0.09144410521665659 0.3489761786861728 0.3454343307333023
Al 0.09144495681722936 0.3489751207114864 0.5954341929302339
Al 0.3414448689309252 0.3489755343772969 0.845434060513815
Al 0.3414446256316019 0.3489745799416404 0.09543404607203963
Al 0.341444108544023 0.3489761762091692 0.3454343430465679
Al 0.341444971729762 0.3489751199847336 0.5954341825666716
Al 0.5914448377729065 0.3489755252167723 0.8454340665338458
Al 0.5914445828237126 0.3489745559056615 0.09543406270489395
Al 0.5914440921330437 0.3489761626093523 0.3454343363282048
Al 0.5914449663943793 0.3489751148743365 0.5954341894510303
O 0.7167549483429942 0.06420928522556658 0.6256870520698097
O 0.7167549057548062 0.064209446449029 0.8756869932854168
O 0.7167548808547648 0.06420903627990018 0.1256870034506248
O 0.7167548361241401 0.0642094640604461 0.375686903853421
O 0.9667549458798936 0.06420928517473266 0.6256870520705471
O 0.966754906098593 0.06420944709144108 0.875686991613001
O 0.9667548807207331 0.06420903470201922 0.1256870038357426
O 0.966754833597639 0.06420946452061445 0.3756869047966716
O 0.2167549487328486 0.06420928562701245 0.6256870517798451
O 0.2167549114726169 0.06420944713846255 0.8756869930647986
O 0.2167548845375186 0.06420903494544652 0.1256870053763473
O 0.2167548354021699 0.06420946313502227 0.3756869041525557
O 0.4667549457966905 0.06420928858072007 0.6256870518815919
O 0.4667549061486097 0.06420944927449534 0.8756869938566603
O 0.4667548775419483 0.06420903811000045 0.1256870045454126
O 0.4667548331461766 0.06420946307507278 0.3756869031562199
O 0.7154466358002748 0.2554609015671407 0.628070735552927
O 0.7154465933335341 0.2554611959806312 0.8780706682006189
O 0.7154469390519798 0.2554602902408882 0.1280705959881295
O 0.7154466782132828 0.2554616971608372 0.378070552730655
O 0.9654466341888887 0.2554608941814663 0.6280707372754658
O 0.965446598266379 0.255461201948916 0.8780706773529481
O 0.9654469457695929 0.2554602896168795 0.1280706015746022
O 0.965446680368734 0.2554616922091272 0.378070552536836
O 0.21544663658103 0.2554608900085491 0.6280707301162786
O 0.215446600263364 0.2554611987335341 0.8780706771136988
O 0.2154469378232659 0.2554602867782313 0.1280705926423558
O 0.2154466793258428 0.2554616955934687 0.3780705556916467
O 0.4654466349650811 0.2554608918684825 0.628070731948937
O 0.4654466003911837 0.2554611968365775 0.8780706790380676
O 0.4654469398364089 0.2554602873489008 0.1280705964408508
O 0.4654466783434263 0.2554616884755554 0.378070556222359
O 0.7152690585263658 0.1298700537716129 0.6276765920959974
O 0.7152690412341171 0.1298702589527107 0.8776764542160996
O 0.7152690124614489 0.1298697739757191 0.1276766069038677
O 0.7152689675669185 0.1298703153076531 0.3776763664536895
O 0.9652690591422582 0.1298700581757151 0.627676594102293
O 0.9652690428699929 0.1298702646559002 0.8776764544162354
O 0.9652690122571297 0.1298697803175527 0.1276766058679439
O 0.9652689683064841 0.1298703188213902 0.377676368618459
O 0.2152690615919575 0.1298700523251802 0.6276765918503935
O 0.2152690468114179 0.1298702652797555 0.8776764533571114
O 0.2152690137818003 0.1298697793405142 0.1276766052066705
O 0.2152689694484528 0.1298703181728865 0.377676365876194
O 0.4652690547111262 0.1298700533390882 0.6276765925682285
O 0.4652690400580474 0.1298702656557933 0.8776764543987996
O 0.4652690072999855 0.1298697783171613 0.1276766075856273
O 0.4652689633070044 0.1298703175645183 0.37767636603067
O 0.7153820002085378 0.3186825179302341 0.6280722793697883
O 0.7153818736229007 0.3186826437701706 0.878072444069349
O 0.7153821013512032 0.3186813959590976 0.1280725508573125
O 0.7153818704336329 0.318683976703047 0.3780720799430397
O 0.9653819931241143 0.3186825138016673 0.6280722804015527
O 0.9653818770779544 0.3186826640521825 0.8780724687038185
O 0.9653821169995933 0.3186814050408402 0.1280725660205287
O 0.9653818630802443 0.3186839691545861 0.3780720787542417
O 0.2153819996372016 0.3186825005292945 0.6280722633251941
O 0.2153818688272005 0.3186826493615097 0.8780724606489536
O 0.2153821040682274 0.3186813855255576 0.1280725410229736
O 0.2153818641923524 0.318683976238044 0.378072092770872
O 0.4653819964499358 0.3186825073677136 0.6280722718613572
O 0.4653818802044563 0.3186826625036769 0.878072477979036
O 0.465382112702678 0.3186813993599272 0.128072553830494
O 0.465381872442676 0.3186839795740106 0.378072088423565
O 0.7160933569243378 0.1926150486546024 0.6270700502451508
O 0.7160933875823532 0.1926153283236973 0.8770699020842661
O 0.7160934225085427 0.1926147411671183 0.1270700150132618
O 0.7160933338311666 0.1926154913949622 0.3770698172976628
O 0.9660933575086987 0.1926150508934759 0.6270700477035269
O 0.9660933873655861 0.1926153351491525 0.8770699022321061
O 0.9660934201096717 0.1926147494386311 0.1270700117164719
O 0.9660933340640239 0.1926154948697866 0.3770698135879093
O 0.216093360439981 0.1926150442226379 0.6270700510239056
O 0.2160933920465889 0.1926153325587403 0.8770699070553327
O 0.2160934224533094 0.1926147474342708 0.1270700141174199
O 0.2160933359366354 0.1926154947176563 0.3770698171252447
O 0.4660933529958217 0.1926150422032634 0.6270700471032911
O 0.4660933880838001 0.1926153306764144 0.8770699022343496
O 0.4660934214303794 0.1926147410192315 0.1270700119170556
O 0.4660933315735024 0.1926154903140111 0.377069813060972
O 0.7150566132135193 0.383020435402639 0.6295660207882819
O 0.715056652860109 0.3830202987052523 0.8795664660486227
O 0.7150564367368962 0.3830186790772212 0.1295660397497327
O 0.7150546213245381 0.3830229871256909 0.3795672964146272
O 0.9650566038152942 0.3830204283668444 0.62956601497602
O 0.9650566571538625 0.383020329186471 0.8795665120733906
O 0.9650564656781705 0.3830186941340772 0.1295660726242507
O 0.9650546359667874 0.3830229761653388 0.379567295879929
O 0.2150566363918971 0.3830204101470203 0.6295659932573778
O 0.2150566255049448 0.3830203126196206 0.8795664918937692
O 0.215056452493604 0.3830186664111023 0.1295660243157812
O 0.2150546138222381 0.3830229924567737 0.3795673154909835
O 0.4650566363908998 0.3830204233862478 0.6295660058813776
O 0.4650566485417422 0.3830203330579855 0.8795665234722227
O 0.465056480128208 0.3830186914895127 0.1295660590853005
O 0.4650546260341764 0.3830229974753701 0.3795673175416069
O 0.662970180531515 0.1628742681398902 0.6550678753299175
O 0.6629701811502671 0.1628745366626841 0.9050676929558656
O 0.6629701147302822 0.1628739978176002 0.1550679044491046
O 0.6629701678901136 0.1628746197401547 0.405067573360054
O 0.9129701877085982 0.1628742687267337 0.6550678759124684
O 0.9129701812164844 0.1628745374106715 0.9050676921477816
O 0.9129701158874173 0.1628740018437872 0.1550679044777477
O 0.9129701700457383 0.162874622176637 0.4050675741228956
O 0.1629701832323464 0.1628742680200276 0.655067876538262
O 0.1629701806272888 0.1628745387871592 0.9050676930715625
O 0.1629701156728567 0.162874007109937 0.1550679070486809
O 0.1629701706118216 0.1628746231536717 0.4050675724298661
O 0.4129701777243411 0.162874264835032 0.6550678746696564
O 0.4129701833544877 0.1628745349037072 0.9050676929836426
O 0.4129701158374852 0.1628739992681025 0.1550679061354775
O 0.4129701706217834 0.1628746191333844 0.4050675698525821
O 0.6620016717946554 0.3511788236135942 0.6548626969446262
O 0.662001564004581 0.3511789622721407 0.9048631190936864
O 0.6620018478158037 0.3511776543461675 0.1548630132013594
O 0.6620007287766163 0.3511789039355423 0.404862742346612
O 0.9120016702477707 0.3511788204304653 0.6548626969567095
O 0.9120015470387712 0.3511789549960681 0.9048631319862452
O 0.9120018639156816 0.3511776362053314 0.1548630234818176
O 0.9120007253256013 0.3511788961329932 0.4048627429428376
O 0.1620016904604714 0.3511788232466354 0.6548626894872147
O 0.1620015381710878 0.3511789554751877 0.9048631271560903
O 0.1620018628011398 0.3511776499613535 0.154863008482932
O 0.1620007089534244 0.3511788942822497 0.404862750902673
O 0.412001681078777 0.3511788266294478 0.6548626928224542
O 0.41200155120501 0.3511789427990246 0.9048631369752443
O 0.4120018662472301 0.3511776449885197 0.1548630163547038
O 0.4120007274402941 0.3511788942428535 0.4048627498499645
O 0.6629460760240603 0.2221562022436375 0.6551728639501175
O 0.6629460638496498 0.2221564874041668 0.9051727836010717
O 0.6629461508786493 0.2221558274243307 0.155172828421717
O 0.6629461326040429 0.2221566115569509 0.4051726303305822
O 0.912946082173308 0.2221562017209101 0.6551728641988694
O 0.9129460664335679 0.2221564916586082 0.9051727837317557
O 0.9129461586529344 0.2221558294262031 0.1551728266755163
O 0.912946134682232 0.2221566147153582 0.405172629789692
O 0.1629460763506251 0.2221562028382371 0.6551728630666726
O 0.1629460645607857 0.222156489157255 0.9051727854723109
O 0.1629461530697365 0.2221558349994893 0.1551728261686849
O 0.1629461335637411 0.2221566106576989 0.405172627398713
O 0.4129460725364273 0.2221562003809686 0.655172862386171
O 0.4129460674569751 0.2221564801246806 0.9051727843668482
O 0.4129461532373884 0.2221558272587136 0.1551728266942225
O 0.412946133963926 0.2221566042517074 0.4051726260364907
O 0.661064402211509 0.4106510389003838 0.6573849603826968
O 0.6610653198565086 0.4106511522986544 0.9073855579518992
O 0.6610642964823703 0.4106500094784347 0.157384479699386
O 0.6610607404980213 0.4106509836215002 0.4073859135406117
O 0.9110643965890418 0.410651038994012 0.6573849525646996
O 0.9110652555060446 0.4106511417197076 0.9073855668322418
O 0.9110642976540271 0.4106499968191337 0.1573844963193437
O 0.9110607491604689 0.4106509822843157 0.4073859137079938
O 0.1610644602212217 0.4106510416272084 0.6573849495323033
O 0.1610652577666737 0.4106511474258508 0.9073855626385048
O 0.1610643320188319 0.4106500114228318 0.1573844775946954
O 0.1610607046347127 0.4106509795771416 0.4073859204495718
O 0.4110644283788814 0.4106510432894606 0.6573849479371273
O 0.4110652523094191 0.4106511392851462 0.9073855716422577
O 0.411064321635631 0.4106500026619095 0.1573844883793875
O 0.4110607284564207 0.4106509784201345 0.4073859253125887
O 0.6542011596448859 0.09783496795228383 0.6555920935092234
O 0.6542011570549255 0.09783521978699856 0.9055919787604297
O 0.654201153044508 0.09783471534402068 0.1555920786732868
O 0.6542010987049919 0.09783524672645216 0.4055919102872277
O 0.9042011671378308 0.0978349704778826 0.6555920896237653
O 0.9042011578039252 0.09783522231220605 0.905591977195478
O 0.9042011548525521 0.09783471766719329 0.1555920760610036
O 0.9042010993414962 0.0978352513385386 0.4055919101688515
O 0.1542011673030024 0.0978349711925834 0.6555920932557877
O 0.1542011599466376 0.09783522218985986 0.9055919798835552
O 0.154201155662998 0.09783471734948106 0.1555920796779125
O 0.1542011016029118 0.09783524848179037 0.4055919112460803
O 0.404201163887103 0.0978349727444288 0.6555920916469653
O 0.4042011606839211 0.09783522385345833 0.9055919763843887
O 0.404201156808728 0.09783471838332281 0.1555920761759986
O 0.4042011020308173 0.09783524899063764 0.4055919073056721
O 0.6524039886676426 0.2864786724564156 0.6549506656395457
O 0.6524037932614931 0.2864788782014244 0.9049507023283638
O 0.6524040963519053 0.286477892762081 0.1549508028154974
O 0.6524040346696619 0.2864791230481285 0.4049504224518085
O 0.9024039901862201 0.2864786642554662 0.6549506647420797
O 0.9024037934550351 0.2864788750190661 0.9049507053461059
O 0.9024041082775536 0.2864778843012835 0.1549508039904578
O 0.9024040327480717 0.2864791157328807 0.4049504179276673
O 0.152403992935834 0.2864786673831435 0.6549506600820677
O 0.1524037882761439 0.2864788715928877 0.9049507097718924
O 0.1524041002370122 0.286477890209628 0.1549507980406529
O 0.1524040282200316 0.2864791135099307 0.4049504229839441
O 0.4024039893832955 0.2864786658621583 0.6549506620428118
O 0.4024037968244175 0.2864788626658863 0.9049507118747353
O 0.4024041017939852 0.2864778877640234 0.1549507986101809
O 0.4024040350610437 0.2864791122324894 0.4049504219614378
O 0.7229062132323413 0.06422630701275057 0.6875268971877387
O 0.7229061920494386 0.06422650092108667 0.9375267522782068
O 0.7229062744787845 0.06422605715149264 0.1875269394993602
O 0.7229061240475347 0.06422648942072716 0.4375266779597469
O 0.9729062150157793 0.06422631050859193 0.6875268988573882
O 0.9729061903575543 0.06422650122046682 0.9375267506926072
O 0.9729062759612853 0.06422605813274901 0.1875269413842755
O 0.9729061223025852 0.06422649208023554 0.4375266765278998
O 0.2229062169445362 0.06422630918665692 0.6875268959857063
O 0.2229061914547219 0.06422650026001779 0.9375267520342175
O 0.2229062759466064 0.06422605932271312 0.1875269427647962
O 0.2229061226203953 0.06422649177603508 0.4375266768694317
O 0.4729062152717964 0.06422631139461769 0.6875268949545132
O 0.4729061908613819 0.0642265046505039 0.9375267531522143
O 0.4729062745655607 0.0642260630084749 0.1875269399305103
O 0.472906123102558 0.0642264943565292 0.4375266780289345
O 0.723357025952684 0.2549609594591781 0.6856187706468402
O 0.7233569941579159 0.2549609594383124 0.9356188196337261
O 0.7233569982167439 0.2549604564268353 0.1856189866863617
O 0.7233570919562762 0.2549614184785259 0.4356183997810845
O 0.9733570285654325 0.2549609578022201 0.6856187679358258
O 0.9733569946007889 0.2549609582762279 0.935618825346855
O 0.9733570009830651 0.2549604563986291 0.1856189868869999
O 0.9733570864789723 0.2549614097358398 0.4356184023833007
O 0.2233570254161577 0.2549609537778957 0.685618767350154
O 0.2233569962207317 0.2549609566340743 0.935618822543672
O 0.2233569976296981 0.2549604554868413 0.1856189846629673
O 0.2233570904566674 0.2549614158987653 0.4356183990925905
O 0.4733570209779392 0.2549609498042827 0.685618770002004
O 0.4733569957898822 0.2549609563856848 0.935618821452639
O 0.4733569918719987 0.2549604474579757 0.1856189905197653
O 0.4733570924072389 0.2549614105434138 0.4356183992780124
O 0.7245140638948254 0.1296700322148835 0.6853005100868402
O 0.7245140365661564 0.1296702453415277 0.9353003309658836
O 0.7245141035185085 0.12966975342464 0.1853005486670421
O 0.724513952184102 0.1296702755473937 0.4353002263157053
O 0.9745140657884424 0.1296700345843521 0.68530050767367
O 0.9745140403692446 0.1296702488395987 0.9353003292921813
O 0.974514105697427 0.1296697592640073 0.1853005474933578
O 0.9745139534907219 0.1296702785144127 0.4353002257588992
O 0.2245140622115234 0.129670030745087 0.6853005090058658
O 0.2245140418311236 0.1296702463006372 0.9353003321533128
O 0.2245141043691248 0.1296697567742406 0.1853005523535778
O 0.2245139565107973 0.1296702761746893 0.4353002269337904
O 0.4745140586309053 0.1296700344587144 0.6853005083659999
O 0.4745140374523483 0.1296702468481458 0.9353003294728335
O 0.4745141012710933 0.1296697554005226 0.1853005487128743
O 0.4745139533714652 0.1296702765645106 0.4353002245362125
O 0.7227088000843693 0.317614461627648 0.6856590161327444
O 0.7227085702688998 0.3176143126851693 0.9356593537969027
O 0.7227090282673245 0.3176137891114314 0.1856596471487774
O 0.7227087238937193 0.3176149667642689 0.4356587171038705
O 0.9727088074227626 0.3176144612725552 0.6856590130418244
O 0.9727085658485198 0.317614313165095 0.9356593733821261
O 0.9727090456772911 0.3176137878062874 0.1856596592614074
O 0.9727087146194628 0.3176149530844234 0.435658715152844
O 0.2227088060729612 0.3176144560795686 0.6856590079485708
O 0.2227085655030855 0.3176143086450441 0.9356593651163441
O 0.2227090328013702 0.3176137867716088 0.1856596371005695
O 0.2227087122434399 0.3176149622815381 0.4356587253477237
O 0.4727087964637743 0.3176144560476887 0.6856590096685684
O 0.472708584902432 0.3176143158841853 0.9356593752967454
O 0.4727090299916663 0.3176137848678186 0.1856596511223654
O 0.4727087233312479 0.3176149611960552 0.4356587239652318
O 0.7150304794942323 0.1924578548422296 0.6861682741374567
O 0.7150304962570194 0.1924580221391399 0.9361681136637546
O 0.7150304388927928 0.1924574928900856 0.186168355574759
O 0.7150305154681478 0.1924581884319432 0.4361679588388367
O 0.9650304809808976 0.1924578566878742 0.6861682755879193
O 0.9650304974111774 0.1924580264482191 0.9361681168957285
O 0.9650304402157592 0.1924574989720063 0.1861683587898658
O 0.9650305161585575 0.1924581900743677 0.4361679611802774
O 0.2150304815411542 0.1924578545252116 0.686168274556521
O 0.2150305005895163 0.1924580260674433 0.9361681162807902
O 0.2150304367983192 0.1924575017812049 0.1861683559463672
O 0.2150305199107126 0.192458189041966 0.4361679572660184
O 0.4650304756634099 0.1924578512879439 0.6861682766601139
O 0.465030498738244 0.1924580208860733 0.9361681172458151
O 0.4650304336472446 0.1924574922480269 0.1861683574296281
O 0.4650305161447975 0.1924581839607497 0.4361679586364626
O 0.7139624457970202 0.3804644933262878 0.6876509083452513
O 0.7139623946797813 0.3804640876364752 0.9376515180589261
O 0.7139630812616772 0.3804642358910985 0.1876505875655832
O 0.7139612427698435 0.3804649148172609 0.4376519441120071
O 0.9639624593783916 0.3804645028551846 0.6876508979835395
O 0.9639623532516981 0.3804641028905898 0.9376515645360047
O 0.9639631003902374 0.3804642411971554 0.1876506227728987
O 0.9639612368050335 0.380464895955522 0.4376519480281508
O 0.213962482686736 0.3804644833400343 0.6876508827016746
O 0.2139623583151947 0.3804640916028798 0.9376515391366275
O 0.2139631115703954 0.3804642294947684 0.1876505715535992
O 0.2139612145609746 0.3804649140962446 0.4376519612139649
O 0.4639624546219375 0.3804644921986988 0.6876508924038989
O 0.4639623739044044 0.3804641137976114 0.9376515672751442
O 0.4639630963862761 0.3804642370865381 0.1876506083426141
O 0.4639612425387815 0.3804649168794004 0.4376519600120914
O 0.6508809548132228 0.1626672552842062 0.7207336993138105
O 0.6508809526862301 0.1626672264082032 0.9707335038616811
O 0.6508809958286995 0.1626672719318249 0.2207338200284166
O 0.6508809794418491 0.1626669717426137 0.4707334445065495
O 0.9008809598466332 0.1626672559327778 0.7207336981179875
O 0.9008809529346365 0.1626672336837569 0.9707335042908903
O 0.90088099791218 0.1626672772448045 0.2207338175518059
O 0.9008809830646043 0.1626669793058338 0.4707334427806033
O 0.1508809558339939 0.1626672584064772 0.7207336970695778
O 0.1508809524778011 0.1626672304697056 0.9707335027972116
O 0.1508810007664828 0.1626672805338009 0.2207338184993917
O 0.1508809834774614 0.1626669736498658 0.4707334438146269
O 0.4008809534620889 0.1626672601649322 0.7207336955534911
O 0.4008809550678336 0.1626672265972537 0.9707335014751344
O 0.4008810014329617 0.1626672784143682 0.2207338183836739
O 0.4008809829776344 0.162666968245628 0.4707334438524614
O 0.6501498308845254 0.3509228949121452 0.7215535077070355
O 0.6501492936878293 0.3509231312013794 0.971553872829793
O 0.6501506259617422 0.3509229850589679 0.2215536469520182
O 0.6501499550089985 0.3509214315497842 0.4715537843008531
O 0.9001498328717102 0.3509228948706486 0.721553503602554
O 0.9001492151866382 0.350923134329716 0.9715538795450651
O 0.9001506027319687 0.350922966307868 0.2215536474214796
O 0.9001499396424728 0.3509214302999966 0.471553787503416
O 0.1501498706365065 0.3509228977379428 0.721553504513282
O 0.1501492557600525 0.3509231167118261 0.9715538762009994
O 0.1501506566880109 0.35092297426295 0.2215536447213671
O 0.1501499182502784 0.3509214247085921 0.4715537903434706
O 0.400149831056164 0.3509229076194434 0.7215535079751132
O 0.4001492280668136 0.3509231133090253 0.9715538775606998
O 0.4001506108832834 0.3509229807620694 0.2215536527099523
O 0.400149939112374 0.3509214203100888 0.471553789151155
O 0.6504956152715989 0.2223041311543514 0.7207736020231382
O 0.6504956917219842 0.2223041368235034 0.970773504317361
O 0.650495512009201 0.2223041592292992 0.2207737349453456
O 0.6504956095311956 0.2223037494353482 0.4707735075812237
O 0.9004956200914923 0.2223041314598576 0.7207736002901869
O 0.9004956899145138 0.2223041406868026 0.9707735061857744
O 0.9004955148292549 0.2223041614565906 0.220773735862781
O 0.9004956102216859 0.2223037535117837 0.4707735068789139
O 0.1504956191598206 0.2223041314654843 0.7207735984027555
O 0.1504956885492998 0.2223041360667876 0.9707735069790026
O 0.1504955155503437 0.2223041635954494 0.2207737378164065
O 0.1504956071603806 0.2223037476818818 0.4707735059109538
O 0.4004956161568829 0.2223041302879728 0.7207735994856587
O 0.4004956897466725 0.2223041321119546 0.9707735043681807
O 0.4004955138564464 0.2223041613719767 0.2207737372159589
O 0.4004956104848417 0.2223037433535806 0.4707735066389991
O 0.6491338646994859 0.4097008770427291 0.718252623801342
O 0.6491336619795695 0.4097011000634543 0.9682533868634925
O 0.6491351601118946 0.4097009435240818 0.2182519782852034
O 0.6491328171828598 0.4096996533242065 0.468252962332813
O 0.8991338814357102 0.409700878293591 0.7182526223439407
O 0.899133469281984 0.4097011077103936 0.9682533724607219
O 0.8991350995654948 0.4097009370433647 0.2182519705891453
O 0.8991328021895932 0.4096996544819782 0.4682529658934836
O 0.1491339631644126 0.4097008785511839 0.7182526276606498
O 0.1491335656784658 0.4097010986852371 0.9682533801999741
O 0.1491352338710068 0.4097009384264852 0.2182519818436326
O 0.1491327348390457 0.409699658787303 0.468252964471268
O 0.3991338780808192 0.4097008847602983 0.7182526226050171
O 0.3991334928286299 0.4097011031616045 0.968253371167123
O 0.399135120590449 0.4097009443640722 0.2182519730955957
O 0.3991327846181872 0.4096996509294845 0.4682529651211436
O 0.6551209320994151 0.0966963645363203 0.7207187279182676
O 0.6551208721774577 0.09669632717614429 0.9707185637552953
O 0.655121021843848 0.09669635465406594 0.2207187743813003
O 0.6551208752796809 0.09669609645463462 0.4707185668079413
O 0.9051209352209244 0.09669636520457499 0.7207187323622001
O 0.9051208751602713 0.09669633011164964 0.9707185636397273
O 0.9051210224361652 0.0966963582002949 0.2207187777914236
O 0.9051208779207832 0.09669609902166677 0.4707185664966385
O 0.155120930714946 0.09669636688781476 0.7207187300344782
O 0.1551208748711318 0.0966963297216159 0.9707185619064681
O 0.1551210244589342 0.09669635979783953 0.2207187763655638
O 0.1551208801463759 0.09669609772355654 0.4707185662732442
O 0.4051209306139966 0.09669636960278322 0.7207187294574801
O 0.4051208765906362 0.09669633014416906 0.9707185658001914
O 0.4051210271531149 0.09669636088562331 0.2207187760343554
O 0.4051208804593092 0.09669609769827923 0.4707185705126087
O 0.6541089844911806 0.2866077624515487 0.7211312538995919
O 0.6541089254023468 0.2866078223836191 0.9711313144801846
O 0.6541088344530428 0.2866078003036493 0.2211315370103659
O 0.6541091044528955 0.2866070974576546 0.4711312013572155
O 0.9041089838301409 0.2866077572270357 0.7211312486307263
O 0.9041089030172784 0.2866078221007294 0.971131315361373
O 0.904108832382944 0.2866077942206054 0.2211315371049111
O 0.9041090977769747 0.2866070945144321 0.4711312033922484
O 0.154108994574879 0.286607763478625 0.7211312491437811
O 0.1541089128925361 0.2866078136895583 0.9711313195980427
O 0.1541088467690155 0.2866077961783656 0.22113153511336
O 0.1541090917890979 0.2866070918851116 0.4711312037694851
O 0.4041089831735168 0.2866077637223345 0.7211312500812144
O 0.4041089058325883 0.2866078090658606 0.9711313161801037
O 0.404108832122618 0.2866077972362431 0.2211315349510417
O 0.4041090987031669 0.2866070890785524 0.4711312046229281
O 0.8542918387735605 0.067866266083874 0.6261341638040722
O 0.8542918174485875 0.06786650613290389 0.8761340702721921
O 0.8542917387453203 0.06786613289190672 0.1261341179463715
O 0.8542917554336855 0.06786655570179435 0.3761339753875241
O 0.1042918386650285 0.06786626619979522 0.6261341654609238
O 0.1042918189515392 0.06786650447223097 0.876134069550046
O 0.10429174069574 0.06786613087096358 0.1261341178410338
O 0.104291756107981 0.06786655573269605 0.3761339755954325
O 0.3542918368849949 0.06786626992864364 0.6261341642858917
O 0.3542918186428307 0.06786650772619934 0.8761340690764249
O 0.3542917430266833 0.06786613612575616 0.1261341193080661
O 0.3542917575457167 0.06786655854881493 0.3761339741431819
O 0.6042918341674505 0.0678662659653522 0.6261341621020313
O 0.6042918176565585 0.06786650588946136 0.8761340701599888
O 0.604291740094099 0.06786613469507882 0.126134117859932
O 0.6042917561854025 0.06786655552184169 0.3761339741553886
O 0.8504068014517743 0.2564624962398739 0.7492617052129792
O 0.85040684015951 0.2564623982885898 0.9992616170068108
O 0.8504066270564389 0.2564624597397263 0.2492620307532867
O 0.8504067625944731 0.2564619606326162 0.4992615815912597
O 0.1004067997077478 0.2564624987268286 0.7492617045621206
O 0.1004068370039493 0.2564623911015086 0.9992616168716894
O 0.1004066277433849 0.2564624636727116 0.2492620309211842
O 0.1004067526295781 0.2564619526459384 0.4992615832632013
O 0.3504067979342987 0.2564624977125307 0.7492617050257416
O 0.3504068391207725 0.2564623857875767 0.9992616133330817
O 0.3504066227538103 0.2564624622149461 0.2492620293720722
O 0.3504067639109209 0.2564619508012385 0.4992615812851923
O 0.600406792638898 0.2564624950894503 0.7492617075868689
O 0.6004068443877145 0.2564623954875164 0.9992616147060301
O 0.6004066197703355 0.2564624596410734 0.2492620306609448
O 0.6004067617853388 0.2564619579539419 0.4992615837794626
O 0.8507428113892007 0.1270593291151084 0.7482745530819592
O 0.8507427962213976 0.1270593143376687 0.9982744295087935
O 0.8507428757195312 0.127059272943527 0.2482745935156609
O 0.8507428223096443 0.1270591184587346 0.4982744114926409
O 0.1007428073179718 0.1270593332314532 0.7482745499374829
O 0.1007427952462461 0.1270593148176021 0.9982744270147803
O 0.1007428741954886 0.1270592786499061 0.2482745951924029
O 0.1007428211287301 0.1270591157340069 0.4982744126655871
O 0.3507428104272322 0.1270593334920281 0.7482745490138381
O 0.3507427982129711 0.1270593125307801 0.9982744279455312
O 0.3507428790453027 0.1270592782249159 0.2482745945251696
O 0.35074282551825 0.1270591118781867 0.4982744154631119
O 0.6007428028605302 0.1270593313439899 0.7482745505973414
O 0.6007427885007491 0.1270593135585768 0.9982744277102926
O 0.600742868581395 0.1270592734692737 0.2482745911737419
O 0.6007428160971018 0.1270591158988444 0.4982744114480758
O 0.849995996714926 0.3160148142072156 0.7494391577263196
O 0.8499958119461805 0.3160147456789008 0.9994393371936103
O 0.8499959772887005 0.3160149191665053 0.2494392943264601
O 0.8499960312970833 0.3160139718737346 0.4994393168123232
O 0.09999601084371401 0.3160148204874288 0.7494391506180341
O 0.09999582743062277 0.3160147406956416 0.9994393303996933
O 0.09999599962731787 0.3160149261929932 0.2494392879426973
O 0.09999602454952224 0.3160139653507354 0.4994393159529019
O 0.3499959893910115 0.3160148196290784 0.7494391555952433
O 0.3499958192715809 0.316014733857322 0.9994393353756073
O 0.3499959738550148 0.3160149246229112 0.2494392939444823
O 0.3499960372546914 0.3160139644698619 0.4994393175485853
O 0.5999959922990551 0.3160148169484618 0.7494391551126457
O 0.5999958499992062 0.3160147503167902 0.9994393295798922
O 0.599995986031073 0.3160149288061558 0.2494392904300241
O 0.5999960482892662 0.3160139731302499 0.4994393152283388
O 0.8468824970016788 0.192029315455182 0.7488703087335501
O 0.8468825560427002 0.1920292923273307 0.9988701594012365
O 0.8468825364230189 0.192029217269408 0.2488704600861648
O 0.8468824514093086 0.1920290404231842 0.4988701293937766
O 0.09688249953265332 0.192029317574297 0.7488703065930914
O 0.09688255556683896 0.1920292926991258 0.9988701613474817
O 0.09688254210845995 0.1920292239878053 0.2488704618868593
O 0.09688245447872586 0.1920290370362162 0.4988701277506581
O 0.3468824981324397 0.192029317127455 0.7488703065620068
O 0.3468825553191481 0.1920292878712775 0.998870159678656
O 0.3468825416336322 0.1920292213081257 0.2488704617121526
O 0.3468824576618822 0.1920290298187671 0.4988701266902459
O 0.5968824930238299 0.1920293151342146 0.7488703085838272
O 0.5968825546739541 0.1920292879766956 0.9988701580137005
O 0.5968825343582511 0.1920292148864323 0.2488704602797983
O 0.5968824516977976 0.1920290327054316 0.4988701287807637
O 0.8464189476722399 0.3812583930423566 0.7495772714894813
O 0.846417841752265 0.3812586623172661 0.9995777598215022
O 0.8464205855067332 0.3812584968180722 0.2495770678571402
O 0.8464195677238703 0.3812568254646888 0.4995779244932563
O 0.09641899093920864 0.3812583947034137 0.7495772586500959
O 0.09641790419508824 0.3812586422753196 0.999577754059098
O 0.09642066148072742 0.3812584989764505 0.2495770683304412
O 0.09641953950921296 0.3812568185127895 0.4995779345534618
O 0.3464189267851383 0.381258405394284 0.749577266530794
O 0.3464178720439582 0.3812586442615523 0.9995777642164178
O 0.3464205899363095 0.3812585071636058 0.2495770646263024
O 0.3464195749135372 0.3812568143724671 0.4995779361666834
O 0.5964189310348398 0.3812583926456994 0.7495772608009311
O 0.5964179633657786 0.3812586546595668 0.9995777518572023
O 0.5964206176800756 0.3812585064360667 0.2495770660248619
O 0.5964195975689494 0.3812568224263228 0.4995779310946767
O 0.7782323897350047 0.1611979339147807 0.6594658625697897
O 0.7782323916768521 0.1611981304078439 0.9094657411351815
O 0.7782323885656054 0.1611976631922562 0.1594659151559827
O 0.7782323729477425 0.1611979973234273 0.4094656551999832
O 0.0282323860502362 0.1611979379960891 0.6594658612236108
O 0.02823239259729722 0.1611981341804571 0.909465738915222
O 0.02823238297335366 0.161197670411913 0.1594659124096152
O 0.028232369071661 0.1611980012705226 0.4094656514421031
O 0.2782323864200882 0.1611979321338584 0.6594658624905134
O 0.2782323955947422 0.1611981311842536 0.9094657431238322
O 0.2782323822245898 0.1611976648434314 0.1594659168283299
O 0.2782323737284129 0.1611979967774258 0.4094656520880535
O 0.528232382465966 0.1611979341787703 0.6594658588321664
O 0.5282323897029614 0.1611981338055704 0.9094657401946726
O 0.528232382656191 0.1611976645181791 0.1594659146026683
O 0.5282323714872306 0.1611979973241431 0.4094656503823337
O 0.7766586352349171 0.3493397733403424 0.6600903523888166
O 0.7766584747373406 0.3493396130191553 0.9100906675064988
O 0.776658751306099 0.3493386355604271 0.1600905228444595
O 0.7766578950999233 0.3493416810691889 0.4100910958545511
O 0.0266586451271281 0.3493397704372116 0.6600903464752912
O 0.02665846603256003 0.3493396536393863 0.9100907038789283
O 0.02665877388780468 0.3493386616829297 0.1600905454878897
O 0.02665788865506566 0.3493416672719293 0.410091098303087
O 0.2766586540019803 0.349339745878621 0.6600903314538957
O 0.2766584646664608 0.3493396308188721 0.9100906866803454
O 0.2766587660415225 0.3493386239133758 0.1600905060490926
O 0.2766578773722532 0.3493416878044738 0.4100911127932146
O 0.5266586425067979 0.3493397609429625 0.6600903424093927
O 0.5266584805730035 0.3493396639345306 0.9100907090752884
O 0.5266587591744926 0.3493386521189507 0.1600905372841461
O 0.5266578934993903 0.3493416914818148 0.4100911137947141
O 0.7775982137641397 0.2238305160072499 0.6594053679283144
O 0.7775982204376557 0.2238307521137879 0.9094052514365614
O 0.7775982859675146 0.2238301174079995 0.1594055477293447
O 0.7775982387809012 0.2238306611585877 0.4094049073900331
O 0.02759821076559012 0.2238305132408705 0.6594053670666282
O 0.02759822402919023 0.2238307540375439 0.9094052526531687
O 0.02759828959525973 0.2238301212130634 0.1594055468569738
O 0.02759823539736815 0.2238306565441323 0.4094049045669014
O 0.2775982072863979 0.223830509532495 0.6594053698414101
O 0.277598224746026 0.2238307515019603 0.9094052535680883
O 0.2775982810391938 0.2238301197370609 0.1594055462579511
O 0.2775982373170041 0.2238306575988115 0.4094049045857468
O 0.5275982047379604 0.2238305059266907 0.659405364479009
O 0.5275982208768679 0.2238307498534889 0.909405250995435
O 0.5275982761750326 0.2238301149832171 0.1594055465614786
O 0.5275982369939638 0.2238306552012146 0.4094049028963022
O 0.778297044170166 0.4149198889804427 0.6624548433818599
O 0.7782980150574175 0.4149192803474123 0.9124546188497834
O 0.7782972369646416 0.414918034906171 0.1624561532298616
O 0.7782932749099897 0.4149237131039158 0.4124567785918303
O 0.02829706011177124 0.4149198783526736 0.6624548597343578
O 0.02829793971696846 0.4149193595340913 0.9124546985460943
O 0.0282972245205799 0.4149180998584107 0.1624562031020864
O 0.02829327891282333 0.4149237174588224 0.4124567614076183
O 0.2782971115424316 0.4149198509559552 0.6624547938378884
O 0.2782979598512946 0.4149193122352979 0.9124546685874486
O 0.278297275897387 0.4149180269862032 0.1624561225406639
O 0.2782932408337386 0.414923733435008 0.4124568101491379
O 0.528297073445994 0.4149198737441412 0.6624548179585971
O 0.5282979476855629 0.4149193653294151 0.9124547316447755
O 0.5282972388136106 0.414918089181291 0.162456160395075
O 0.5282932603712652 0.4149237409873334 0.4124568068630043
O 0.7853721172160282 0.09736634247173614 0.657434292883202
O 0.7853720986386684 0.09736653101541709 0.9074341759821097
O 0.785372133527522 0.0973661238758963 0.157434308155453
O 0.7853720284062776 0.09736643226257091 0.4074341254496046
O 0.0353721163379942 0.09736634315200744 0.6574342934737675
O 0.03537210010205281 0.09736653175570664 0.9074341748170436
O 0.03537213266770283 0.09736612372992612 0.1574343091596905
O 0.03537202848833017 0.09736643373456336 0.4074341237942196
O 0.2853721175713222 0.09736634404882828 0.6574342912792719
O 0.2853721004770273 0.0973665349715548 0.907434174739305
O 0.2853721372634332 0.09736612588990359 0.1574343065006341
O 0.285372031464903 0.09736643478961669 0.4074341245430856
O 0.5353721119992547 0.09736634219785098 0.6574342912674226
O 0.5353720951456611 0.09736653333235282 0.9074341756388838
O 0.5353721321074543 0.09736612339263623 0.157434305513042
O 0.5353720277967817 0.09736643188466049 0.4074341258260429
O 0.7858672529249437 0.2864318056989678 0.6588585951081843
O 0.7858671065809736 0.2864320167472638 0.9088586788820848
O 0.7858674124963522 0.2864312073761032 0.1588587537357005
O 0.78586721314941 0.2864323200078157 0.4088582480925652
O 0.03586725586688111 0.2864318039863258 0.6588585944708848
O 0.03586710172748744 0.2864320249416731 0.9088586875155785
O 0.03586741626569543 0.2864312180670281 0.1588587625252809
O 0.03586720732835878 0.2864323107050276 0.4088582492924319
O 0.2858672515477019 0.28643179398202 0.6588585932779029
O 0.285867106463955 0.2864320120862187 0.9088586830538179
O 0.2858674126027419 0.2864312038125791 0.1588587509182624
O 0.2858672094673965 0.2864323166893519 0.4088582492929578
O 0.5358672493129351 0.2864317990256134 0.6588585932550597
O 0.5358671115726372 0.2864320272263081 0.9088586865932446
O 0.5358674059289641 0.2864312104061856 0.1588587562217675
O 0.5358672143680437 0.2864323233262893 0.408858251567992
O 0.8355688407437152 0.06785348913046425 0.6871056423593014
O 0.8355687994154649 0.06785360274269737 0.9371054513493494
O 0.835568916429087 0.06785338843288895 0.1871056858970573
O 0.8355687648354846 0.06785347100105883 0.4371053632428086
O 0.08556883926703435 0.06785349172399283 0.6871056425778708
O 0.08556879926095237 0.06785360005923993 0.937105451490173
O 0.08556891581836974 0.06785338817487059 0.1871056881673746
O 0.08556876397718026 0.06785346915632792 0.4371053628922216
O 0.3355688393991525 0.06785349621808148 0.6871056402251595
O 0.3355688038586265 0.06785360197712943 0.9371054524547857
O 0.3355689203572344 0.06785339213025353 0.1871056875967577
O 0.3355687661717848 0.0678534700271637 0.4371053631411279
O 0.5855688351223133 0.06785349132754169 0.6871056407679549
O 0.5855687993362324 0.06785360167883586 0.9371054538008354
O 0.5855689145506289 0.06785338907509113 0.1871056859109807
O 0.5855687634599709 0.06785346944289077 0.4371053644169352
O 0.8379503516576016 0.2566842192631852 0.6898842916616668
O 0.8379503270535633 0.2566844087777525 0.9398842546417555
O 0.8379503695998143 0.2566839378268271 0.1898845789464742
O 0.8379503511882631 0.2566840605199017 0.4398838730682422
O 0.08795035577890536 0.2566842220484857 0.6898842892323975
O 0.08795032360879056 0.2566844046597603 0.9398842552609339
O 0.08795037211433408 0.2566839445895111 0.1898845802678732
O 0.08795034391388848 0.2566840534253529 0.4398838714368208
O 0.33795035234105 0.2566842203926428 0.6898842918864337
O 0.337950322684578 0.2566843968441331 0.9398842536177193
O 0.3379503706207295 0.2566839404733987 0.1898845810799476
O 0.3379503449317143 0.2566840516846239 0.4398838689598064
O 0.587950348712197 0.2566842190484659 0.6898842898784219
O 0.5879503270674855 0.2566844067916922 0.9398842514716991
O 0.5879503654648325 0.2566839388801908 0.1898845810292319
O 0.5879503471368218 0.2566840586407479 0.4398838690137611
O 0.8384761530757988 0.1269539012406194 0.6901569350616001
O 0.8384761278852868 0.1269539936865761 0.9401568194353307
O 0.8384762200704163 0.1269538021788733 0.1901569622396282
O 0.8384760722197836 0.1269537968446962 0.4401568141445634
O 0.08847614750426133 0.1269539035266475 0.6901569338161727
O 0.08847612414499675 0.1269539936224831 0.9401568189584147
O 0.08847621862843603 0.1269538061742876 0.1901569621965619
O 0.08847606759351918 0.1269537980357237 0.4401568129694881
O 0.3384761522707226 0.1269539054571878 0.690156931818052
O 0.3384761310695202 0.1269539950930375 0.9401568196694137
O 0.3384762264155196 0.126953808217058 0.1901569645614397
O 0.3384760727676285 0.1269537967554188 0.4401568133223522
O 0.5884761455349 0.1269539007586755 0.6901569323239934
O 0.5884761230135215 0.1269539930525059 0.9401568194640525
O 0.5884762155730048 0.1269538011721167 0.1901569641285782
O 0.5884760666987857 0.1269537937268693 0.4401568142749009
O 0.8377322106040959 0.3160764467603351 0.6900628602769081
O 0.8377319355172674 0.3160766516068184 0.9400630934626644
O 0.83773250780194 0.3160760686686194 0.1900629265116921
O 0.8377321891135635 0.3160761950445657 0.4400628811695736
O 0.08773222838587419 0.3160764475067841 0.6900628560009591
O 0.08773194309267884 0.3160766478124276 0.9400630948902947
O 0.08773253335952813 0.3160760732928628 0.1900629286665992
O 0.0877321805993094 0.3160761881004989 0.4400628859003808
O 0.337732216359823 0.3160764434142928 0.6900628559662487
O 0.337731933101094 0.3160766400721289 0.9400630928833381
O 0.3377325170426542 0.3160760672083207 0.1900629245029153
O 0.3377321821757858 0.3160761904005661 0.440062882354977
O 0.587732213695176 0.3160764463812465 0.6900628605429182
O 0.5877319632264817 0.3160766553660462 0.9400630918009778
O 0.5877325211596153 0.3160760750710885 0.1900629296672532
O 0.5877321943285663 0.3160762002431563 0.4400628840113741
O 0.8484937240547775 0.1921433762440793 0.6901383328775448
O 0.8484937599045461 0.1921434725176603 0.9401381971298407
O 0.8484937128166453 0.1921432691619484 0.1901384723073207
O 0.8484937531974457 0.1921431858569632 0.4401380827984442
O 0.09849372011616304 0.1921433795911558 0.6901383333725423
O 0.09849376229808646 0.1921434718680471 0.9401381951807548
O 0.09849371072785372 0.1921432779401146 0.1901384747141244
O 0.09849375445610187 0.1921431838197551 0.4401380796375938
O 0.3484937222711876 0.1921433769100186 0.6901383344626414
O 0.3484937633200579 0.1921434676208109 0.94013819291801
O 0.348493710183598 0.1921432740720205 0.1901384731901155
O 0.3484937574724553 0.1921431794829271 0.4401380797854818
O 0.5984937219616746 0.1921433733944722 0.6901383333342557
O 0.5984937577460733 0.1921434686355888 0.9401381941045488
O 0.5984937070060916 0.1921432650811632 0.1901384717397716
O 0.5984937524704377 0.1921431808491268 0.4401380821405714
O 0.8465696751232955 0.3810839455760552 0.6909984215658632
O 0.8465696903752696 0.3810840754570446 0.9409989895466776
O 0.8465707172764195 0.3810834331918812 0.190998557262564
O 0.8465676712201252 0.3810839115941206 0.4409986856829201
O 0.09656972145848811 0.3810839521903016 0.6909984133242649
O 0.09656971388507921 0.3810840900950721 0.9409989872084525
O 0.09657076903348548 0.3810834562320336 0.1909985590411282
O 0.09656764166821123 0.3810839010986248 0.4409986897143169
O 0.3465696860980487 0.3810839437866494 0.690998417337306
O 0.3465696963872261 0.3810840729556315 0.9409989925134514
O 0.3465707268125781 0.3810834377087608 0.1909985502343192
O 0.3465676591305631 0.3810839101446563 0.4409986903985625
O 0.5965696719381762 0.3810839418343154 0.6909984162784714
O 0.5965697687796664 0.3810841035810064 0.9409989891073748
O 0.5965707347669463 0.3810834546804889 0.1909985566279797
O 0.5965676815100514 0.3810839192050677 0.4409986892381553
O 0.7856599015696153 0.1606329291326135 0.7171073040778695
O 0.7856599114651248 0.1606330383211785 0.9671071734475598
O 0.7856599166290308 0.1606326170030509 0.2171074411166694
O 0.7856598894890846 0.1606329428449585 0.4671071004700881
O 0.03565990127564619 0.160632934323443 0.7171073024086502
O 0.03565991374334941 0.1606330412420372 0.9671071746301432
O 0.03565992006017916 0.1606326245570131 0.2171074427941798
O 0.03565988709136308 0.1606329445004781 0.4671071010364976
O 0.2856599021530122 0.1606329317681763 0.7171072996631389
O 0.2856599141230257 0.1606330378929174 0.9671071722706941
O 0.2856599204408543 0.1606326234723954 0.217107441024858
O 0.2856598910985126 0.1606329395750293 0.4671070993886812
O 0.5356598956892528 0.160632932090582 0.7171073039516788
O 0.5356599065938222 0.1606330397856943 0.9671071729222386
O 0.535659910804887 0.160632620095909 0.2171074428904508
O 0.5356598865453007 0.1606329416154106 0.4671071015828117
O 0.7848871162634997 0.3482373330142934 0.7179589312999832
O 0.7848866910521335 0.3482373295465826 0.9679593851964282
O 0.7848878387020138 0.3482371566819358 0.2179589033793477
O 0.7848870038613427 0.3482366030077731 0.4679594595490058
O 0.03488714341505864 0.3482373445481601 0.7179589181185192
O 0.03488671491185001 0.3482373306808785 0.9679593932276839
O 0.0348878798435498 0.3482371678610691 0.2179589084068079
O 0.0348869828937112 0.3482365869834633 0.4679594698246318
O 0.2848871160234204 0.3482373325045455 0.7179589225624433
O 0.2848866940333217 0.3482373192819531 0.9679593942919174
O 0.2848878409788877 0.3482371575589976 0.2179588950234826
O 0.2848869980744832 0.348236593203639 0.4679594710420815
O 0.5348871130287526 0.3482373295289677 0.7179589245184274
O 0.5348867489717656 0.3482373481169522 0.9679593883210025
O 0.534887855626034 0.3482371608457051 0.2179589060127755
O 0.5348870217924397 0.3482366016613017 0.4679594676640342
O 0.7854389355489197 0.2234781992366549 0.7169684267384581
O 0.7854390058247251 0.2234782353579068 0.9669683125817606
O 0.7854388889404051 0.2234777892007324 0.2169687264583536
O 0.7854388735006076 0.2234782488486996 0.4669679563897008
O 0.03543893606798416 0.2234781998593684 0.7169684262753153
O 0.0354390034394594 0.2234782320416019 0.9669683165092726
O 0.035438887088937 0.2234777919573394 0.2169687300546939
O 0.03543886803374648 0.2234782388214916 0.4669679595343574
O 0.2854389366621142 0.2234782005348484 0.7169684249737805
O 0.2854390069985701 0.2234782293268651 0.9669683145210545
O 0.28543888574503 0.2234777909118529 0.2169687262428764
O 0.2854388720854091 0.2234782397987831 0.4669679582715829
O 0.5354389309879334 0.2234781961091847 0.7169684269196925
O 0.5354390065524401 0.2234782302206521 0.9669683138746308
O 0.5354388822728465 0.2234777837365293 0.2169687271773264
O 0.5354388733913732 0.22347824041793 0.4669679598096753
O 0.7824448950110872 0.4127633056551298 0.7222719513203795
O 0.7824442597805163 0.4127632851974799 0.9722725425649212
O 0.7824460610305141 0.412763526650803 0.2222713941114852
O 0.7824450379531601 0.4127625626743356 0.4722733789099108
O 0.03244496069775352 0.4127633246099529 0.7222719404319643
O 0.03244435341914279 0.4127632786563277 0.9722725755114356
O 0.03244617922656061 0.4127635381313212 0.2222714254730668
O 0.03244498553645044 0.4127625495254502 0.4722733767270104
O 0.2824448803942847 0.412763317344041 0.7222719224814618
O 0.2824442892214102 0.4127632688774772 0.9722725650487845
O 0.2824460668977332 0.4127635359218191 0.2222713754580053
O 0.2824450275444796 0.4127625450397449 0.4722733991248951
O 0.5324448811093395 0.4127633110655167 0.7222719269795929
O 0.5324444368077482 0.4127632915212508 0.9722725915164065
O 0.5324461135133706 0.4127635322413905 0.2222714034016703
O 0.5324450651278375 0.4127625574344284 0.4722733949154296
O 0.7848747609802139 0.09608681123789067 0.7176491115335605
O 0.784874708912128 0.09608690261665931 0.9676489610504465
O 0.7848748561397556 0.09608663024953815 0.2176491455789376
O 0.7848746725122062 0.09608672791952252 0.4676489340232174
O 0.03487475585993161 0.09608681451513373 0.7176491106983922
O 0.03487470709504557 0.0960869010520992 0.967648961238923
O 0.03487485383657486 0.09608663100238414 0.2176491471791392
O 0.03487467049703159 0.09608672625177375 0.4676489340693862
O 0.2848747566053574 0.09608681671399835 0.7176491101582231
O 0.2848747114156364 0.09608690218577931 0.9676489659865467
O 0.284874861840612 0.09608663476754489 0.2176491476870379
O 0.2848746766299536 0.09608672658476297 0.4676489355979397
O 0.5348747526625252 0.09608681167821581 0.7176491113139247
O 0.534874704722166 0.09608690168579322 0.9676489658230909
O 0.5348748553603168 0.09608663078074116 0.2176491457898844
O 0.5348746709067002 0.09608672535915783 0.4676489360102317
O 0.7847284045330604 0.2861342830920079 0.7180177914959994
O 0.784728304407287 0.2861342651317335 0.9680179473815123
O 0.7847284700587986 0.2861337858566083 0.2180181244946078
O 0.7847285614801623 0.2861341477099482 0.4680174372913345
O 0.0347284141263698 0.2861342822877393 0.7180177887029785
O 0.03472831139590201 0.2861342608147888 0.9680179487534286
O 0.0347284836743201 0.2861337877114246 0.2180181261910256
O 0.03472855237280816 0.2861341371977619 0.4680174397879516
O 0.284728405482898 0.2861342778923052 0.718017790470364
O 0.2847283055296636 0.2861342552294988 0.9680179492981181
O 0.2847284728218365 0.2861337844046952 0.218018121045603
O 0.2847285548660269 0.2861341411818616 0.4680174408586589
O 0.5347284036626094 0.2861342788846408 0.7180177881820495
O 0.5347283218451271 0.2861342654724294 0.968017948120479
O 0.534728470279049 0.2861337846577349 0.218018124312055
O 0.5347285636176506 0.2861341458101196 0.4680174419320396
O 0.7102077848740647 0.4421533685146033 0.6956848853358718
O 0.7102145531195709 0.4421512563028833 0.9456867741834506
O 0.7102034170159612 0.4421549079523817 0.1956816024167303
O 0.7101915215737437 0.4421573172921482 0.4456861331089089
O 0.9602077289866577 0.4421533989230307 0.6956848457584999
O 0.960214121924495 0.4421513401625882 0.9456868266774306
O 0.9602031839661688 0.442154964306303 0.1956816464100115
O 0.9601916000622599 0.4421572867801873 0.4456861612190146
O 0.2102080294575155 0.4421533224217733 0.695684856157511
O 0.2102143034125268 0.4421513096389315 0.9456867854290056
O 0.2102035591385002 0.4421548887589394 0.1956815931747666
O 0.2101913746835286 0.4421573410255611 0.4456861503485104
O 0.4602078888309842 0.4421533463333201 0.6956848705754706
O 0.4602140184273662 0.4421513839576238 0.945686807350522
O 0.4602033466474835 0.4421549173522074 0.1956816600312779
O 0.46019140839268 0.4421573428450298 0.4456861516823968
O 0.8323139413298233 0.4467846462808814 0.6928716284987375
O 0.8323132762503235 0.4467848401733003 0.9428719237106331
O 0.8323151889646309 0.4467843433626111 0.1928711704542925
O 0.8323139413231437 0.446784238370192 0.4428739314010772
O 0.08231399351533772 0.4467846545490641 0.692871614784091
O 0.08231331947297686 0.4467848528796352 0.9428719635462446
O 0.08231526356920701 0.446784367936296 0.1928711976946492
O 0.0823139056004922 0.4467842335993798 0.4428739432159086
O 0.3323139456454539 0.446784648294315 0.6928716014290971
O 0.3323132844512873 0.4467848360684835 0.9428719516047371
O 0.3323152044056656 0.4467843539674439 0.1928711580608454
O 0.3323139285853666 0.4467842324002931 0.4428739612789334
O 0.5823139376657206 0.4467846455112246 0.6928716123133696
O 0.582313383368774 0.4467848600675938 0.9428719641385458
O 0.582315222516649 0.4467843618797261 0.1928711851941492
O 0.5823139538240463 0.4467842395736512 0.4428739537377075
O 0.8557685077711806 0.4461343431271472 0.6287391576641274
O 0.8557691212161951 0.446134171739889 0.8787397431581847
O 0.8557682798422039 0.4461334453311213 0.1287400020997689
O 0.8557652170603398 0.4461348253471276 0.3787396300160241
O 0.1057685521334029 0.4461343409860875 0.6287391675903752
O 0.105769026192845 0.4461341504133475 0.8787397616529903
O 0.1057681996944259 0.4461334233189402 0.1287399995985152
O 0.1057651758503578 0.4461348228454707 0.3787396258891326
O 0.3557685636426943 0.4461343526488093 0.6287391407120966
O 0.355769083322692 0.4461341620990082 0.878739768602035
O 0.3557683046354534 0.4461334501448114 0.1287399838011561
O 0.355765185888033 0.4461348197352353 0.3787396514731236
O 0.6057685511715809 0.4461343534027812 0.6287391440461657
O 0.6057690496886988 0.4461341414121438 0.878739776960903
O 0.6057681942779698 0.4461334268616264 0.1287399847668738
O 0.6057651743620451 0.4461348138846713 0.3787396382043963
O 0.7303891433559152 0.4477809651008017 0.6282284387514425
O 0.730388358694522 0.4477806123781092 0.8782298025648119
O 0.7303879907737375 0.4477758590480693 0.1282263553274567
O 0.7303920783818129 0.4477897293426953 0.3782377596485051
O 0.980389145987913 0.4477809102102584 0.6282283969885624
O 0.9803883840545536 0.4477807564912212 0.8782299311516811
O 0.9803880176177886 0.4477759861507642 0.1282264281654016
O 0.980392071263516 0.4477897608346321 0.3782377629216572
O 0.2303891267407688 0.4477808886730827 0.6282283397335463
O 0.2303883672998964 0.4477806700563295 0.878229886087575
O 0.2303879815838193 0.447775845155681 0.1282263008920868
O 0.2303920933652314 0.4477897639274619 0.3782378195515761
O 0.4803891327882898 0.4477809165636469 0.6282283752957352
O 0.4803884036726163 0.4477807390278538 0.8782299422388672
O 0.4803879986600006 0.4477759807591692 0.128226397058636
O 0.4803920977279336 0.447789777908348 0.3782378102816207
O 0.7167548682623783 0.06420963418699779 0.7506869523335876
O 0.7167548103526251 0.06420949899283075 0.0006867787383565454
O 0.7167549353000485 0.0642097330726274 0.2506870282758273
O 0.716754839027973 0.06420928520611117 0.5006868263219881
O 0.9667548666400453 0.06420963244435995 0.7506869518960272
O 0.9667548117494785 0.06420949997894532 0.0006867778990656232
O 0.9667549356032387 0.06420973205081301 0.2506870316843058
O 0.9667548364131301 0.06420928637021599 0.5006868247344004
O 0.2167548705089673 0.06420963510277099 0.7506869498030772
O 0.2167548162359549 0.06420949867266558 0.0006867798781644798
O 0.2167549354764949 0.06420973221110905 0.2506870306569104
O 0.2167548397994765 0.06420928429550064 0.5006868270379753
O 0.4667548674050724 0.06420963752739817 0.7506869509453674
O 0.466754810486171 0.06420949908440005 0.0006867809168376532
O 0.4667549317075716 0.06420973627583941 0.2506870275265186
O 0.4667548371493153 0.06420928551310129 0.5006868279391636
O 0.7154467295896334 0.2554624387530636 0.7530708950348709
O 0.7154467383510832 0.2554624813776778 0.003070865264306976
O 0.7154464557241619 0.2554624335030676 0.2530711072732634
O 0.7154469020062469 0.2554616036122193 0.5030707813714502
O 0.9654467347040968 0.2554624252082722 0.7530708907467486
O 0.9654467317690033 0.2554624747320626 0.003070864583575941
O 0.9654464590199452 0.2554624254163247 0.2530711072748368
O 0.9654468961952152 0.2554616040556573 0.503070785133612
O 0.2154467369539399 0.2554624360071255 0.7530708956039481
O 0.2154467373819281 0.2554624770546326 0.003070865033930019
O 0.2154464631259027 0.2554624296436866 0.2530711088985119
O 0.2154468957912429 0.2554616006264709 0.5030707825355714
O 0.4654467291463663 0.2554624323912636 0.7530708951710535
O 0.4654467334024026 0.2554624627408775 0.003070857768020969
O 0.4654464513631406 0.2554624273237497 0.2530711071846571
O 0.4654469027031067 0.2554615936145439 0.503070782529015
O 0.7152689360408899 0.129870521380472 0.7526766378958076
O 0.7152689121036432 0.1298703838724131 0.002676421847424153
O 0.7152690037494072 0.1298705966803538 0.2526766725742974
O 0.7152689462793634 0.1298701154281841 0.5026764909188387
O 0.9652689365827524 0.1298705214377536 0.7526766389345809
O 0.9652689147647356 0.1298703896873334 0.002676422464310079
O 0.9652690044233283 0.1298706017719107 0.2526766766425882
O 0.9652689457474345 0.1298701223760211 0.5026764906670742
O 0.2152689375442424 0.1298705243939182 0.7526766339032394
O 0.2152689182312748 0.1298703868459332 0.002676420880667693
O 0.2152690054028556 0.1298706023893328 0.2526766737557489
O 0.2152689488467913 0.1298701168281773 0.5026764913106182
O 0.4652689308315312 0.129870526934723 0.7526766353708405
O 0.4652689100725539 0.1298703840056471 0.002676424469366712
O 0.465268999116395 0.1298706020564918 0.252676672400012
O 0.4652689442873272 0.1298701151705751 0.5026764940245066
O 0.7153820782763887 0.3186860278321265 0.7530715753158922
O 0.7153819825905399 0.3186864002221003 0.003071677382291292
O 0.7153819964997278 0.318685808049535 0.2530717894054005
O 0.7153821051470187 0.3186845522700873 0.5030720592916075
O 0.9653820838958741 0.3186860086799643 0.7530715598937421
O 0.9653819471776151 0.3186863826948102 0.00307165979384991
O 0.965381991366039 0.3186857904667826 0.253071785110749
O 0.9653820894705379 0.3186845585343485 0.5030720666360415
O 0.2153820945619888 0.3186860285710622 0.753071576723465
O 0.2153819624195696 0.3186863868384734 0.003071677438309913
O 0.2153820088004387 0.3186857996131072 0.2530717918906232
O 0.2153820879687827 0.3186845504435734 0.5030720589841848
O 0.4653820753737914 0.3186860221383752 0.7530715663319861
O 0.4653819607597331 0.3186863668956394 0.003071657074413098
O 0.4653819860269713 0.3186858022101162 0.2530717867987436
O 0.4653821014215316 0.3186845461138087 0.503072059593602
O 0.7160932325613476 0.1926157751899525 0.7520701589431239
O 0.716093239881839 0.1926156791431674 0.002069994661553305
O 0.7160932060027189 0.1926157851253248 0.2520702508856441
O 0.7160933059721366 0.1926152895788968 0.5020700150983931
O 0.9660932315321541 0.1926157735348142 0.75207015427682
O 0.9660932374618798 0.1926156823995756 0.002069991219843751
O 0.9660932053288355 0.1926157887059133 0.2520702504131538
O 0.9660933038794934 0.1926152960622896 0.5020700109102648
O 0.2160932330165881 0.1926157770482873 0.7520701598348507
O 0.2160932420077487 0.1926156814247257 0.002069993517082663
O 0.2160932112813648 0.1926157892705804 0.2520702547439738
O 0.2160933081190936 0.192615290648239 0.5020700161784976
O 0.4660932272051519 0.1926157738691967 0.7520701554535479
O 0.4660932369887441 0.1926156726450552 0.002069988250628728
O 0.4660932034279425 0.1926157838023407 0.2520702475714675
O 0.4660933056063344 0.1926152842521755 0.5020700146049732
O 0.7150522922906429 0.3830272437185557 0.7545676306356556
O 0.7150514059880285 0.3830281862442356 0.004568364640383001
O 0.7150537510228044 0.3830264859434839 0.2545672045986062
O 0.7150527875059187 0.3830248754214807 0.5045675758294795
O 0.965052331920478 0.3830272168844225 0.7545676078605735
O 0.9650513475534606 0.383028154121788 0.004568324117785127
O 0.9650537567242913 0.3830264614601249 0.2545671821762217
O 0.9650527568866115 0.3830248866351831 0.5045675928130752
O 0.2150523343353481 0.3830272526668725 0.7545676448817619
O 0.2150513696336848 0.3830281636581413 0.004568349936333952
O 0.2150537935258871 0.3830264812081919 0.2545672114047051
O 0.2150527441340895 0.383024874831974 0.5045675713234056
O 0.4650523009612904 0.3830272442672862 0.754567629910898
O 0.4650513872852888 0.3830281383736734 0.004568311590571308
O 0.4650537497319526 0.3830264848948864 0.2545672016329322
O 0.4650527836760827 0.383024869679046 0.5045675748329179
O 0.6629701410105434 0.1628747401514658 0.7800678577199597
O 0.6629701771903901 0.1628745928929156 0.03006765258746352
O 0.662970182224922 0.1628747661290356 0.2800679138263751
O 0.6629701457305762 0.1628742938088787 0.5300677560048296
O 0.912970141997112 0.1628747401696565 0.7800678539606601
O 0.9129701762632055 0.1628745967613944 0.03006765419445401
O 0.9129701840353683 0.1628747676227028 0.2800679162859697
O 0.9129701500357336 0.1628742982199468 0.5300677566023637
O 0.1629701408392543 0.1628747455836519 0.7800678530635478
O 0.1629701753573436 0.1628745956022979 0.03006765462109277
O 0.1629701868259589 0.1628747720458041 0.2800679179900103
O 0.1629701489782681 0.1628742944079253 0.5300677574762725
O 0.4129701387797781 0.16287474370449 0.7800678547315716
O 0.4129701759327993 0.1628745910455549 0.03006765207294271
O 0.4129701851527293 0.1628747685588148 0.2800679140431793
O 0.4129701451496113 0.1628742874410332 0.5300677571944468
O 0.6619998904508578 0.351179426428178 0.779861824855593
O 0.6619994557049016 0.3511791446484328 0.02986192947387903
O 0.6620003093237382 0.3511801558944315 0.2798619962641831
O 0.6620002384489926 0.3511782976728285 0.5298622900705192
O 0.9119999152605581 0.3511794209119461 0.7798618177641853
O 0.9119994264517067 0.351179154953958 0.02986191891863886
O 0.9120003124865835 0.3511801489549611 0.2798619921880161
O 0.912000212594902 0.3511782942069778 0.529862296178665
O 0.161999906121093 0.351179424153318 0.779861828166033
O 0.1619994348906322 0.3511791392543092 0.02986192794708141
O 0.1620003273962996 0.3511801418923929 0.2798619999209944
O 0.1620002137212031 0.3511782980995199 0.5298622891974357
O 0.4119998909011128 0.3511794286322942 0.7798618233654497
O 0.4119994539702028 0.351179144771407 0.02986191647401792
O 0.4120003016483507 0.3511801559052817 0.2798619966130962
O 0.412000239679482 0.3511782905304757 0.5298622892779661
O 0.6629461110309587 0.2221568001165787 0.7801727364018869
O 0.6629461935937152 0.2221566163858687 0.03017265841148961
O 0.6629460050686387 0.2221568634373739 0.2801728783651595
O 0.6629461934166307 0.2221562137305925 0.5301727082030387
O 0.912946112258195 0.2221568007482857 0.7801727326614134
O 0.9129461912886341 0.2221566239656023 0.03017266045994435
O 0.9129460077650254 0.2221568651361629 0.2801728799877785
O 0.9129461966716064 0.2221562167874456 0.5301727079661102
O 0.1629461123661524 0.2221568031973545 0.7801727319866656
O 0.162946191223438 0.2221566203435342 0.03017265801056024
O 0.1629460103128123 0.2221568657731831 0.2801728791580427
O 0.1629461934052487 0.2221562133198163 0.5301727080449579
O 0.4129461092436805 0.2221567997632273 0.7801727348813581
O 0.4129461883375293 0.2221566126913631 0.03017265559094461
O 0.4129460042001672 0.2221568621067619 0.2801728778411371
O 0.4129461914579097 0.2221562065589043 0.5301727078472273
O 0.6610541619046811 0.4106513464306021 0.782385462953746
O 0.6610522047599439 0.4106511031494147 0.03238597851324326
O 0.6610572600405982 0.4106520755562272 0.2823856522411203
O 0.6610553943593902 0.4106504539064045 0.5323851755830247
O 0.9110542355347166 0.4106513457163832 0.7823854577415869
O 0.911052194854718 0.4106511204959366 0.03238596170666942
O 0.9110572759432647 0.4106520767100223 0.2823856336695355
O 0.9110553487811203 0.4106504551406586 0.5323851823721258
O 0.1610541991759325 0.4106513428655407 0.7823854759039502
O 0.1610521715362099 0.4106511069151201 0.03238596514463433
O 0.1610573021618057 0.4106520680666221 0.2823856587946264
O 0.1610553441580717 0.4106504569182335 0.5323851679500079
O 0.4110541963455452 0.4106513527919486 0.7823854739981912
O 0.411052229397852 0.4106511153492117 0.03238594837478723
O 0.4110572697133691 0.4106520812226512 0.2823856521278625
O 0.4110553909373884 0.4106504523906101 0.5323851652157456
O 0.6542011039763824 0.09783523041471681 0.7805920387388624
O 0.6542010567126557 0.09783511534498245 0.03059188671003726
O 0.6542011287348918 0.09783531633057099 0.2805920829515605
O 0.6542011112526956 0.0978348889536528 0.5305919393561934
O 0.9042011078737717 0.09783523313845889 0.7805920370005851
O 0.9042010588920899 0.097835121702477 0.03059188558818166
O 0.9042011307918486 0.09783531684601646 0.2805920831145174
O 0.9042011140606581 0.09783489421566643 0.5305919350658631
O 0.154201107339836 0.09783523578176852 0.7805920377392256
O 0.1542010601946731 0.09783511788744358 0.03059188936297233
O 0.1542011327866234 0.097835318128037 0.2805920847498619
O 0.154201116427221 0.09783488862540327 0.5305919387419059
O 0.4042011056583956 0.09783523864775456 0.7805920350036073
O 0.4042010605473044 0.09783511801322746 0.03059188638410634
O 0.4042011339567064 0.09783532276954374 0.2805920797864325
O 0.4042011157188423 0.09783488864539938 0.5305919380509693
O 0.6524045750360911 0.2864797350048353 0.7799502744263933
O 0.652404588552625 0.2864795539439734 0.02995024683746763
O 0.6524043285747554 0.2864799719361579 0.2799504390123421
O 0.6524045403181427 0.2864787598732104 0.5299504846463188
O 0.902404582607448 0.2864797284753619 0.7799502680315508
O 0.9024045746986419 0.2864795497230128 0.02995024490693131
O 0.9024043305756733 0.2864799611410926 0.2799504389085266
O 0.9024045309910967 0.2864787539126371 0.5299504832373167
O 0.1524045857398691 0.2864797334617684 0.7799502700748598
O 0.1524045771048664 0.2864795451815538 0.02995025112032914
O 0.152404338274437 0.286479963340231 0.2799504362048452
O 0.1524045280660329 0.2864787549149639 0.529950485234621
O 0.4024045753858399 0.2864797298040677 0.7799502690202965
O 0.4024045782242882 0.2864795411449784 0.02995024628170369
O 0.4024043254153371 0.2864799628325294 0.2799504347973539
O 0.402404538318662 0.2864787487404245 0.5299504874626109
O 0.7229061877921388 0.06422640428069475 0.8125267733263459
O 0.722906070883523 0.06422629430233204 0.06252664181339442
O 0.7229061757406415 0.06422651550399497 0.3125267835434272
O 0.722906191266827 0.0642261146427473 0.5625267502685541
O 0.9729061895781519 0.06422640576255748 0.8125267721681496
O 0.9729060715808289 0.06422629551784714 0.06252664086600049
O 0.9729061760640305 0.06422651691869669 0.3125267875871517
O 0.9729061899796829 0.06422611803884538 0.562526749950113
O 0.2229061894583272 0.06422640513937437 0.8125267707010665
O 0.2229060720373157 0.06422629420594617 0.0625266418247549
O 0.2229061759547203 0.0642265178018285 0.3125267853427178
O 0.2229061913802903 0.06422611760367096 0.5625267518180003
O 0.4729061872969639 0.06422640876152026 0.8125267721051197
O 0.4729060723707539 0.06422629858118148 0.06252664320556714
O 0.4729061748202023 0.06422652158028672 0.3125267824325803
O 0.472906192872019 0.06422611878481042 0.5625267514293976
O 0.7233570148073643 0.2549625918258355 0.8106181243273628
O 0.7233571686162369 0.2549624345830467 0.06061794295421806
O 0.7233569760727016 0.2549625121773634 0.3106182810603859
O 0.7233570930447034 0.2549617471668176 0.5606183273120072
O 0.9733570168072845 0.2549625859648815 0.8106181235780525
O 0.9733571627195519 0.2549624254891968 0.06061793933247457
O 0.97335697988127 0.2549625105331108 0.3106182813901299
O 0.9733570875740816 0.2549617424975749 0.5606183284060835
O 0.2233570189266119 0.2549625897312577 0.8106181257388196
O 0.2233571633777811 0.2549624304732221 0.06061793824189663
O 0.2233569789103761 0.254962507990686 0.3106182823030182
O 0.2233570908588663 0.2549617454770307 0.5606183262933311
O 0.4733570106643712 0.2549625777601779 0.8106181267210897
O 0.4733571631564231 0.2549624247910825 0.06061793771648306
O 0.4733569721710292 0.2549625024388993 0.310618279143864
O 0.4733570914433283 0.2549617415018712 0.5606183277781474
O 0.7245139747077121 0.1296703225437318 0.8103004130615281
O 0.7245138944317763 0.1296701519846357 0.06030025409913258
O 0.7245139891421349 0.1296704114153381 0.3103004525239292
O 0.7245140073321712 0.1296699191980759 0.560300365170706
O 0.9745139757599991 0.1296703218574535 0.8103004115625357
O 0.9745138947905212 0.1296701608500224 0.06030025174955592
O 0.9745139916244623 0.1296704120911263 0.3103004566032002
O 0.9745140104734774 0.1296699256460939 0.5603003626967474
O 0.224513975950597 0.1296703233316902 0.8103004128006566
O 0.2245138961280143 0.1296701555758205 0.06030025364406538
O 0.2245139901115611 0.1296704107411999 0.3103004569454043
O 0.2245140121825293 0.1296699189302582 0.5603003658903242
O 0.4745139719843591 0.1296703274618094 0.8103004120469388
O 0.4745138931779126 0.1296701524386517 0.06030025496399246
O 0.4745139852366672 0.1296704148660974 0.3103004510143459
O 0.4745140076184607 0.1296699177531862 0.5603003654465255
O 0.7227093151580242 0.317616684052692 0.8106575862258558
O 0.7227092556379733 0.3176166320576125 0.06065749540891718
O 0.7227090474450796 0.3176166079557697 0.3106577169686906
O 0.722709356507625 0.3176157082911913 0.5606583045612952
O 0.9727093168516879 0.3176166679883815 0.810657577185968
O 0.9727092374101638 0.3176166218950285 0.06065747852215644
O 0.9727090513813953 0.3176165980777284 0.3106577042169922
O 0.9727093437118757 0.3176157077641744 0.5606583090019888
O 0.2227093163572449 0.3176166780545796 0.8106575911575061
O 0.2227092496612065 0.3176166281395129 0.06065749306086603
O 0.2227090555130997 0.3176165980022497 0.3106577167668175
O 0.222709347258272 0.3176157116706121 0.5606583036042613
O 0.4727093047800462 0.3176166717519349 0.8106575808422751
O 0.4727092466259964 0.3176166192639678 0.0606574716094634
O 0.4727090394763107 0.3176166028013775 0.3106577113470534
O 0.4727093597458011 0.3176157045924142 0.560658304470757
O 0.7150304334052631 0.192458588986083 0.8111681207178959
O 0.7150305051255615 0.1924583794233019 0.06116799140182309
O 0.7150304403200346 0.1924586200749097 0.3111681726078079
O 0.715030468161908 0.1924579922155957 0.5611681453004683
O 0.9650304371856343 0.1924585893420521 0.8111681225908084
O 0.9650305014385461 0.1924583851845522 0.06116799474327864
O 0.9650304419823204 0.1924586247136108 0.3111681778123029
O 0.9650304640085077 0.192457995476916 0.5611681447167353
O 0.2150304393643795 0.1924585927338682 0.8111681200493056
O 0.2150305044495913 0.1924583841675222 0.06116799283005644
O 0.2150304465517006 0.1924586245853906 0.3111681755496376
O 0.215030465385272 0.1924579922867827 0.5611681434384709
O 0.465030429532593 0.1924585892001419 0.8111681215491834
O 0.4650304998479592 0.1924583756518617 0.06116799353420002
O 0.465030439365657 0.1924586198521785 0.3111681730792398
O 0.4650304652999822 0.1924579862087216 0.5611681492030939
O 0.7139600047187634 0.3804669742008633 0.812651863868727
O 0.7139593170275292 0.3804670706340202 0.06265228834616436
O 0.7139603362136587 0.3804665788049639 0.3126519089166393
O 0.7139606550090721 0.380466397713648 0.5626514936363973
O 0.9639600457300529 0.3804669453478886 0.8126518447971205
O 0.963959312884039 0.3804670556587864 0.06265224709812879
O 0.9639603499422862 0.3804665690533674 0.3126518808620057
O 0.9639606328518568 0.3804664052515919 0.5626515103792409
O 0.2139600219104458 0.3804669611124938 0.8126518825706577
O 0.2139592991981321 0.380467071476348 0.06265226996834337
O 0.2139603614891741 0.3804665612626486 0.3126519165324856
O 0.2139606325718497 0.380466414163848 0.5626514820893748
O 0.4639600218253885 0.3804669534292973 0.8126518659578307
O 0.4639593294675231 0.380467057921371 0.06265222557087501
O 0.4639603443117223 0.3804665738261782 0.3126519024787178
O 0.4639606630129831 0.3804664072869889 0.5626514844301306
O 0.6508809812588119 0.1626672382919549 0.8457335113143429
O 0.6508809973157569 0.1626666924300918 0.09573348288768144
O 0.6508809247684657 0.1626672938790162 0.3457334532389966
O 0.6508810210060051 0.1626668964002569 0.5957335991683521
O 0.9008809826274293 0.1626672403769205 0.8457335105970656
O 0.9008809978784934 0.1626666985674451 0.0957334793995145
O 0.9008809284027721 0.1626672993793065 0.3457334546562814
O 0.9008810277672868 0.1626669017293032 0.5957335986314001
O 0.1508809810526369 0.1626672421078044 0.8457335087147571
O 0.1508809972970011 0.1626667002736976 0.09573347866022848
O 0.1508809303326075 0.1626672984314776 0.3457334531213596
O 0.1508810254549924 0.1626668979011354 0.5957336005945509
O 0.4008809828645911 0.1626672420314377 0.8457335078972534
O 0.4008810005392829 0.1626666954184021 0.09573348040115247
O 0.4008809300839764 0.1626672948597963 0.3457334509626089
O 0.4008810223983923 0.1626668950148294 0.5957336005557585
O 0.6501520743402153 0.3509206200337903 0.8465538225798486
O 0.6501518564894806 0.3509191505355177 0.09655362729804243
O 0.6501510081581769 0.35092159184079 0.3465538105096776
O 0.650152026800191 0.3509204010365081 0.5965536031178382
O 0.9001521184145176 0.3509206151454333 0.8465538169479181
O 0.9001518954430595 0.350919151267599 0.09655362493899211
O 0.9001510232087421 0.3509215885003041 0.3465538009557236
O 0.9001520031933564 0.3509203956769545 0.5965536087465575
O 0.1501520741485087 0.3509206114017338 0.8465538275502145
O 0.1501518526313073 0.3509191473584919 0.09655362493983584
O 0.1501510156184484 0.350921576856399 0.3465538134482047
O 0.1501520185842841 0.3509203988185762 0.5965536016186542
O 0.4001521025348955 0.3509206061096404 0.8465538299868006
O 0.4001519052455642 0.350919152915221 0.09655361667635469
O 0.4001510170026684 0.3509215900011815 0.3465538170895975
O 0.4001520335364822 0.3509203975860081 0.5965535972348082
O 0.6504952300584766 0.2223040935882752 0.8457735971674272
O 0.6504953238841522 0.2223033791148269 0.09577358994501622
O 0.6504953596502082 0.222304218525619 0.3457734932242967
O 0.650495312123497 0.222303670013752 0.5957736460927711
O 0.9004952328065969 0.2223040964208463 0.8457735970873741
O 0.9004953290911779 0.2223033823121165 0.09577359027759866
O 0.9004953607049139 0.2223042221079408 0.3457734960524201
O 0.9004953151036276 0.2223036702596239 0.5957736475936458
O 0.1504952309125848 0.2223040942892215 0.8457735976344541
O 0.1504953228431274 0.2223033817858176 0.09577358810114546
O 0.1504953625805985 0.2223042225348636 0.3457734951356551
O 0.1504953112936253 0.2223036648607095 0.5957736457746169
O 0.4004952332527801 0.2223040914188866 0.8457736002992624
O 0.400495324409283 0.2223033777445313 0.0957735894058708
O 0.4004953640151668 0.2223042179520073 0.3457734936683033
O 0.4004953112652042 0.2223036639775356 0.5957736461177817
O 0.6491326619445542 0.4096987968816984 0.8432517104006063
O 0.6491319045491073 0.4096977439298474 0.09325180293684499
O 0.6491323190821447 0.4096996631223889 0.3432525072079551
O 0.6491335208148483 0.4096988270767987 0.5932514157529027
O 0.8991327775827512 0.409698789055288 0.843251716773517
O 0.899132015540371 0.4096977402279073 0.09325181861603246
O 0.8991323694777005 0.4096996636720703 0.3432525028079628
O 0.8991334653847982 0.4096988278921873 0.5932514174275422
O 0.1491326628778617 0.4096987925851769 0.8432517196771691
O 0.1491319002523079 0.4096977475136583 0.0932517977683605
O 0.149132340246974 0.4096996607159146 0.3432525133790857
O 0.1491334956012308 0.4096988308561567 0.5932514083908462
O 0.3991327345800836 0.4096987869209133 0.8432517285388964
O 0.3991320389483553 0.4096977447053335 0.09325180347692399
O 0.3991323519975478 0.4096996647669444 0.3432525216873543
O 0.3991335244881812 0.4096988300279556 0.5932514024944743
O 0.65512100247482 0.09669618525311115 0.8457186451018142
O 0.6551209318256969 0.09669576164047741 0.09571864895030406
O 0.655120919135374 0.09669627333167152 0.3457186038889395
O 0.6551210186023724 0.09669593133983426 0.595718692292003
O 0.9051210011891001 0.09669618573133819 0.8457186470626687
O 0.905120931303421 0.09669576287604696 0.0957186501167229
O 0.9051209218436831 0.09669627629371898 0.3457186055152042
O 0.9051210261753686 0.09669593325607477 0.5957186949269909
O 0.1551210007812125 0.09669618866512608 0.8457186447107536
O 0.1551209316739303 0.0966957644996214 0.09571864893026789
O 0.1551209216416343 0.09669627662647204 0.3457186035283238
O 0.1551210267384621 0.09669593310302339 0.5957186947907863
O 0.405121004315438 0.09669619053745983 0.8457186456769328
O 0.4051209346872687 0.09669576460664436 0.09571865233841051
O 0.405120922266444 0.09669627510230637 0.3457186051110884
O 0.4051210233353187 0.09669593371108247 0.5957186960134963
O 0.654109009737062 0.286607333167738 0.8461311544971302
O 0.6541092440288361 0.2866063568857741 0.09613104700261732
O 0.6541090066706953 0.2866076827933719 0.3461310523698595
O 0.6541090281817 0.2866068778045663 0.5961312449679037
O 0.904109021144155 0.2866073343958151 0.8461311572488927
O 0.9041092549595382 0.2866063521341856 0.09613105212578682
O 0.904109009551882 0.2866076778646679 0.346131051077959
O 0.9041090242512633 0.2866068713904207 0.5961312472921784
O 0.1541090118898611 0.2866073328247514 0.8461311592362909
O 0.154109241286646 0.2866063528291849 0.096131045689641
O 0.1541090081870145 0.2866076766637631 0.3461310547776487
O 0.1541090244017649 0.2866068710935549 0.5961312399819328
O 0.4041090207609352 0.2866073261913343 0.8461311643278163
O 0.4041092551774319 0.2866063520031578 0.09613104598770181
O 0.404109007772986 0.2866076765688174 0.3461310559716816
O 0.4041090289647551 0.2866068720199533 0.5961312427991585
O 0.8542917854847341 0.06786654959075139 0.7511340626137974
O 0.8542917258455002 0.06786650201501788 0.001133851765451114
O 0.8542918652712841 0.06786653895793106 0.2511341457744136
O 0.8542917205923042 0.06786633580594914 0.5011339086778444
O 0.1042917847671257 0.06786655022268159 0.7511340616044655
O 0.1042917249155283 0.06786649813189763 0.00113385214903318
O 0.1042918667022116 0.06786653905676776 0.2511341476613838
O 0.1042917231228812 0.06786633356898328 0.5011339092948591
O 0.3542917848884231 0.06786655326415239 0.7511340590130196
O 0.354291727050225 0.0678665021678983 0.001133852716158396
O 0.3542918675235956 0.06786654567059892 0.2511341457973135
O 0.3542917234266458 0.06786633678194277 0.5011339107145305
O 0.6042917839244103 0.06786654890198263 0.7511340596028484
O 0.604291725082901 0.06786650110771605 0.001133852561473156
O 0.6042918643042121 0.06786654117493041 0.2511341446034646
O 0.6042917198841069 0.06786633459969917 0.501133909772347
O 0.8504061696851624 0.2564624554810193 0.874261598634599
O 0.8504063871945721 0.2564616731891332 0.1242615598035469
O 0.8504063637748027 0.2564626337731803 0.3742613950715066
O 0.8504063284023108 0.2564619642839955 0.6242617595205843
O 0.1004061611107622 0.2564624507556876 0.874261600702359
O 0.1004063706657505 0.2564616708637115 0.1242615583338835
O 0.1004063561712069 0.256462630113831 0.3742613940408767
O 0.1004063204708856 0.2564619606035186 0.6242617581217582
O 0.3504061712253213 0.2564624465530772 0.8742616008950689
O 0.3504063806804031 0.2564616723307369 0.1242615557817689
O 0.3504063634308094 0.2564626277594309 0.3742613947035313
O 0.3504063261930335 0.2564619616199003 0.6242617561030945
O 0.6004061582973129 0.2564624484051303 0.8742616004167125
O 0.6004063728956879 0.2564616704705826 0.1242615587202381
O 0.6004063555581305 0.2564626300884731 0.374261396156738
O 0.6004063231551173 0.2564619653261703 0.6242617570431604
O 0.8507429212173668 0.1270592900779187 0.8732744188188237
O 0.8507428770159688 0.1270588606718218 0.123274439255386
O 0.8507428480270077 0.127059384147956 0.3732743956265048
O 0.8507429290052185 0.127058981193659 0.6232744861224578
O 0.1007429215772338 0.1270592922832227 0.8732744169204949
O 0.1007428730438307 0.127058864571588 0.1232744380291346
O 0.1007428465662459 0.12705938654134 0.3732743944862564
O 0.1007429256072171 0.1270589825002088 0.6232744867023879
O 0.350742926300271 0.1270592931520282 0.8732744185396105
O 0.3507428785206746 0.1270588614368848 0.1232744407833412
O 0.3507428504705033 0.1270593827302562 0.3732743946750897
O 0.3507429275560489 0.1270589800428783 0.6232744851702855
O 0.6007429156554237 0.1270592924564447 0.8732744181944612
O 0.6007428697990458 0.1270588607138287 0.123274438879051
O 0.6007428418840649 0.1270593828458524 0.3732743937630445
O 0.6007429176058022 0.127058981684518 0.6232744814065119
O 0.8499960981262233 0.3160142778965316 0.8744392284233128
O 0.8499963181131379 0.316013277969505 0.1244392499357951
O 0.8499959744753953 0.3160145851219902 0.3744391760281824
O 0.8499961887240339 0.3160139085235767 0.6244392518982325
O 0.09999608531740757 0.3160142687134129 0.8744392309194614
O 0.09999629779269537 0.3160132755087714 0.1244392462650047
O 0.09999596976394366 0.3160145772576524 0.3744391747540292
O 0.09999619470095797 0.3160139121020851 0.6244392448228606
O 0.3499960974718591 0.3160142666936874 0.8744392346237017
O 0.3499963134222755 0.3160132815359188 0.1244392435938259
O 0.3499959757839867 0.3160145794478756 0.3744391808406832
O 0.349996195067201 0.3160139133441924 0.6244392437310288
O 0.5999960884350733 0.3160142735328212 0.8744392317645437
O 0.5999963008469427 0.3160132758648242 0.1244392489379249
O 0.5999959747567132 0.3160145861066597 0.374439176981972
O 0.5999961979042485 0.3160139144421218 0.6244392444928899
O 0.8468822975273952 0.1920293778578929 0.8738701062679666
O 0.8468822678874258 0.1920288204013785 0.1238701304720801
O 0.8468823395536013 0.1920295035648316 0.373870014107677
O 0.8468823795553572 0.1920289460516023 0.6238702473753692
O 0.0968823008044838 0.1920293773157529 0.8738701069265949
O 0.09688226743067879 0.1920288275451379 0.123870128658267
O 0.09688234142089956 0.1920295047331326 0.3738700142421615
O 0.09688238177989243 0.1920289452584906 0.6238702460690043
O 0.3468823018205755 0.1920293752072637 0.87387010825796
O 0.3468822711083835 0.1920288227577444 0.1238701298002869
O 0.3468823447714391 0.192029500089085 0.3738700106119296
O 0.3468823787213381 0.1920289404731343 0.6238702465745835
O 0.5968822948673236 0.1920293748228436 0.8738701072278755
O 0.5968822661520723 0.1920288169000434 0.123870129970322
O 0.5968823393966011 0.1920294986801473 0.3738700101446908
O 0.5968823730432596 0.1920289438073683 0.6238702466480861
O 0.8464241292647542 0.3812553787371764 0.874577750957375
O 0.846423961650707 0.3812540783705248 0.1245779487100065
O 0.8464217564305184 0.3812564426028481 0.3745778637264012
O 0.8464240342098853 0.3812554572853979 0.6245774955607196
O 0.09642405788867701 0.3812553786604485 0.8745777706011089
O 0.09642390448783714 0.3812540801106637 0.1245779526846323
O 0.09642173775928847 0.3812564341880946 0.3745778638128923
O 0.09642406756268183 0.3812554581564509 0.6245774982752371
O 0.3464241015799643 0.3812553715864582 0.8745777698233949
O 0.3464239766287777 0.3812540815473282 0.1245779366692286
O 0.3464217441968078 0.3812564403725126 0.3745778805467981
O 0.346424079510508 0.3812554570255057 0.6245774799706985
O 0.5964240781524864 0.3812553838150107 0.8745777759899284
O 0.596423903226986 0.3812540827861243 0.1245779435934222
O 0.5964217364852475 0.3812564442375433 0.3745778733964343
O 0.5964240644174236 0.3812554616376368 0.6245774865052899
O 0.778232313985691 0.1611980914247382 0.7844659153319761
O 0.7782323441570537 0.1611977911308175 0.03446575811786603
O 0.7782323136655045 0.1611982824543755 0.2844659316650242
O 0.7782323671831275 0.1611976680371049 0.5344658425379744
O 0.02823231327407278 0.1611980936431535 0.7844659097614064
O 0.02823233890551253 0.1611977961296944 0.03446575561484577
O 0.02823231006723173 0.1611982874954616 0.2844659322117876
O 0.02823236190657245 0.1611976732240203 0.5344658405444273
O 0.2782323143408663 0.1611980943485583 0.7844659129776409
O 0.2782323406870786 0.161197788644071 0.03446575648479312
O 0.2782323128723201 0.1611982859414866 0.2844659344077266
O 0.2782323661341902 0.1611976642060905 0.5344658442601691
O 0.5282323081184117 0.1611980970037069 0.784465913580044
O 0.5282323375637851 0.1611977874779295 0.03446575403636944
O 0.528232308954429 0.1611982866284227 0.2844659289415946
O 0.5282323651346679 0.1611976653139976 0.5344658415749423
O 0.7766574362917236 0.3493452845691049 0.7850912878401336
O 0.7766570831322194 0.3493459339517708 0.03509173985044509
O 0.7766577336734318 0.3493445714034625 0.2850909911968089
O 0.7766576463571039 0.3493435709657546 0.5350914125326722
O 0.02665745698222703 0.3493452478356851 0.7850912710817104
O 0.02665706679434234 0.3493458929108006 0.03509170690104408
O 0.02665774775232103 0.3493445478944984 0.2850909720050985
O 0.02665762779430763 0.3493435851640656 0.5350914223141425
O 0.2766574511587728 0.3493452865695986 0.7850912971949435
O 0.2766570738578204 0.3493459198106496 0.03509172776556497
O 0.2766577507482366 0.3493445648247869 0.2850909952935436
O 0.2766576294575365 0.3493435748457211 0.5350914095580448
O 0.5266574364537815 0.3493452717101739 0.7850912846013658
O 0.5266570834705421 0.3493458827576451 0.03509169779219202
O 0.5266577293143219 0.3493445642323948 0.2850909874203335
O 0.5266576521199988 0.3493435709770124 0.5350914112881145
O 0.7775981150415018 0.2238308820384943 0.7844050195740082
O 0.7775981877237943 0.2238305665560151 0.03440477685140357
O 0.7775980481911141 0.2238311244699488 0.2844051459204406
O 0.7775982193984101 0.2238303094210894 0.5344050958888802
O 0.02759811739402469 0.2238308786896362 0.7844050164452422
O 0.02759818115637528 0.2238305603487578 0.03440477257096925
O 0.02759805065596815 0.2238311230621975 0.284405143277344
O 0.02759821228946435 0.2238303085019359 0.5344050937974707
O 0.2775981202506833 0.2238308821721956 0.7844050206973333
O 0.277598181125065 0.2238305622925013 0.03440477385457371
O 0.2775980484052564 0.2238311236593686 0.2844051479952375
O 0.2775982120511897 0.2238303060408273 0.5344050954350009
O 0.5275981105900605 0.2238308762863974 0.7844050169465054
O 0.5275981773759528 0.2238305553635455 0.03440476720181381
O 0.5275980381728032 0.2238311166019288 0.2844051422037197
O 0.5275982143773107 0.2238303032538802 0.5344050934688939
O 0.7782863821223693 0.4149311847055188 0.7874584243838932
O 0.7782843533924462 0.4149328072977398 0.03745992269793472
O 0.7782893797778285 0.414929253022131 0.2874564457289338
O 0.778287845956632 0.414928166835711 0.537459356859385
O 0.02828645305578858 0.4149311450366823 0.7874583651122368
O 0.02828437896902751 0.4149327304104704 0.03745986421394656
O 0.0282894173421443 0.4149292113055799 0.2874564297789139
O 0.02828780949145792 0.4149281930520465 0.5374593853129275
O 0.2782864025136393 0.4149312148319529 0.7874584083853904
O 0.2782843440050516 0.4149327752290913 0.03745992643676448
O 0.2782894146806955 0.4149292668172846 0.2874564320452307
O 0.2782878176725092 0.4149281607677854 0.5374593834560264
O 0.5282864084720682 0.4149311857829069 0.7874583756834743
O 0.5282844115753659 0.4149327070811472 0.03745986218345078
O 0.5282893999560726 0.4149292442195164 0.2874564264108554
O 0.528287854861973 0.4149281576040789 0.5374593752370792
O 0.7853720206913426 0.0973664145495952 0.7824342507588987
O 0.7853719764890653 0.09736619457823271 0.03243413018194485
O 0.7853720358271221 0.09736656261102473 0.2824342681030072
O 0.7853720584834246 0.09736609102851519 0.5324341885911014
O 0.03537202163401163 0.09736641381774848 0.7824342518105302
O 0.03537197532212467 0.09736619534651139 0.03243412909487347
O 0.0353720354001629 0.09736656477235045 0.2824342691566567
O 0.03537205923321025 0.09736609188716952 0.532434187111095
O 0.2853720228228914 0.0973664177589854 0.7824342499078071
O 0.2853719780692872 0.09736619555387604 0.03243412849493121
O 0.2853720385753904 0.09736656691817755 0.2824342662381979
O 0.2853720610171542 0.09736609260770189 0.5324341875930287
O 0.5353720173294122 0.09736641651105246 0.7824342490812517
O 0.5353719741844235 0.09736619315817198 0.03243413031143993
O 0.5353720340031063 0.0973665643661409 0.2824342656611199
O 0.5353720555105324 0.09736609020955303 0.532434189108058
O 0.785867524341649 0.2864332139925064 0.7838578746579167
O 0.7858674719543873 0.286433050802433 0.03385774596132105
O 0.7858673258152749 0.2864333224539434 0.2838581178553719
O 0.7858675466788625 0.2864323376662474 0.5338580941526415
O 0.03586752872302287 0.2864332059219139 0.7838578766284006
O 0.03586746677744772 0.2864330362138325 0.03385774059775414
O 0.0358673347924858 0.2864333147874319 0.2838581146766605
O 0.03586753903989949 0.2864323403721889 0.533858095266189
O 0.2858675249147773 0.2864332132472244 0.7838578816326149
O 0.2858674687729027 0.2864330399575548 0.03385774218946432
O 0.2858673288776516 0.2864333154410301 0.2838581195727826
O 0.285867541240683 0.2864323329689032 0.533858089972488
O 0.5358675192779807 0.286433209276416 0.7838578779180186
O 0.5358674775212398 0.2864330339770172 0.03385773422255163
O 0.5358673219781303 0.286433318586419 0.2838581157814186
O 0.5358675505920951 0.2864323377977723 0.5338580930837508
O 0.835568850199378 0.06785345598319791 0.8121054970327979
O 0.8355687657023345 0.0678531947646982 0.06210533726889814
O 0.8355687981221412 0.06785354555399806 0.3121055184085162
O 0.8355688765485616 0.06785320980713279 0.562105461155171
O 0.08556884833941426 0.06785345688820946 0.812105496432368
O 0.08556876557788684 0.0678531944323367 0.06210533857271051
O 0.08556879969686086 0.06785354556785243 0.3121055198468154
O 0.08556887549892414 0.06785320855456499 0.5621054632634572
O 0.3355688501254707 0.06785345918636541 0.8121054957454613
O 0.3355687683860423 0.06785319610975919 0.06210533961291766
O 0.3355688019651215 0.06785354836891916 0.3121055163130804
O 0.3355688784594891 0.06785321148685915 0.5621054627657384
O 0.5855688487282128 0.06785345588442659 0.8121054978071738
O 0.5855687640797742 0.06785319499289613 0.06210534026562382
O 0.5855687966400319 0.0678535463901641 0.3121055169246402
O 0.5855688738018389 0.06785321057370408 0.5621054628803565
O 0.8379502639086156 0.2566843224078647 0.8148836944584544
O 0.8379503227646986 0.2566837180129722 0.06488347563986432
O 0.8379502355922918 0.2566846283220205 0.3148837806464721
O 0.8379503280924155 0.2566837114156746 0.5648838941636019
O 0.08795026220012925 0.2566843214365432 0.8148836927783932
O 0.0879503163134895 0.2566837159985192 0.06488347219690467
O 0.08795023785614278 0.2566846262587358 0.3148837783748805
O 0.08795032411323288 0.2566837107932945 0.564883892931354
O 0.3379502617595691 0.2566843201609348 0.8148836962729897
O 0.3379503195531076 0.256683712273265 0.06488347277250492
O 0.3379502336836668 0.2566846249184491 0.314883780975708
O 0.3379503265378355 0.256683705819246 0.5648838920891819
O 0.5879502553251752 0.2566843213997363 0.8148836950656121
O 0.5879503209703395 0.256683711835313 0.06488346898906203
O 0.5879502299742467 0.2566846286290778 0.3148837765114716
O 0.5879503272015975 0.2566837111767256 0.5648838908908549
O 0.8384761220029454 0.126953839761357 0.8151569332577046
O 0.8384760530620974 0.1269534705783774 0.06515689770177671
O 0.8384760988881356 0.1269539604928716 0.3151569030571248
O 0.8384761652194491 0.1269535363912295 0.5651569197301818
O 0.0884761177875351 0.1269538418797564 0.8151569299389962
O 0.08847604800250412 0.1269534738207851 0.06515689632148286
O 0.08847609625282044 0.1269539637794926 0.3151569025107276
O 0.08847616067972455 0.1269535359682139 0.5651569216532548
O 0.3384761266419142 0.1269538437729451 0.815156930577094
O 0.3384760546877282 0.126953474764163 0.06515689765107543
O 0.3384761026667495 0.126953965138569 0.3151569013520402
O 0.3384761644548658 0.1269535351180319 0.5651569226681851
O 0.5884761192877047 0.1269538397398839 0.8151569331459838
O 0.588476047315434 0.1269534696864248 0.06515689894702102
O 0.5884760928905921 0.1269539601994077 0.3151569004606957
O 0.5884761561644271 0.1269535331482008 0.5651569201280738
O 0.8377330477442467 0.3160764505385417 0.8150623769262472
O 0.8377329487765244 0.3160758110147159 0.06506242128245956
O 0.8377326405666738 0.316076906183113 0.3150625338818948
O 0.837733021664304 0.3160758071784998 0.5650625170975982
O 0.08773303794110439 0.3160764476133605 0.8150623839611714
O 0.08773293149795361 0.3160758044284309 0.06506242200429244
O 0.08773264314008838 0.3160768985797052 0.3150625351267907
O 0.08773302311419186 0.3160758096113593 0.565062518120895
O 0.3377330407689169 0.3160764458257782 0.8150623851133353
O 0.3377329510064176 0.316075804471764 0.06506241247159297
O 0.3377326433869446 0.3160768992566223 0.3150625400972276
O 0.3377330291048857 0.3160758043558562 0.56506250589968
O 0.5877330320232717 0.3160764512731082 0.8150623895906381
O 0.5877329408165519 0.3160758082354458 0.06506241718880484
O 0.5877326357429687 0.3160769086785565 0.3150625410478604
O 0.5877330343170657 0.3160758122528199 0.5650625119157557
O 0.8484935835208872 0.1921433835658858 0.8151382018903505
O 0.8484936433712416 0.1921428525637553 0.06513809210404646
O 0.848493585941286 0.1921435455316076 0.3151381796874711
O 0.848493649267979 0.1921429614025621 0.5651382465038851
O 0.09849358724263908 0.1921433853175982 0.8151382023169378
O 0.09849364174145649 0.1921428560719941 0.06513808854960206
O 0.09849358633365543 0.1921435491902352 0.3151381776041692
O 0.09849364442125716 0.1921429608009025 0.565138244616728
O 0.3484935886964992 0.192143384799982 0.8151382046971396
O 0.3484936445743559 0.1921428512212417 0.06513808830868785
O 0.3484935869997576 0.1921435458019979 0.3151381779355441
O 0.3484936451380362 0.1921429555426887 0.5651382444744993
O 0.5984935807343902 0.1921433813573666 0.8151382018513426
O 0.5984936419678513 0.1921428467772482 0.06513808862962731
O 0.5984935834823983 0.1921435413656624 0.31513817662073
O 0.598493645119589 0.1921429565698766 0.5651382443822462
O 0.8465649843217639 0.3810847675094975 0.8159974910222968
O 0.8465639379891027 0.3810842992226794 0.06599771531732376
O 0.8465656716506712 0.3810851016548708 0.3159977516501441
O 0.8465662403841839 0.3810839833052978 0.5659978820708147
O 0.09656494600018996 0.381084748855628 0.8159975009698153
O 0.09656389986614769 0.3810842714819433 0.06599771212984511
O 0.09656567142534352 0.3810850842321558 0.3159977483999787
O 0.0965662472078772 0.3810839926948218 0.5659978788364257
O 0.3465649535371959 0.3810847680069255 0.8159975038016757
O 0.3465639568234544 0.381084292618924 0.06599770418645197
O 0.3465656627206786 0.3810850995225228 0.3159977619477146
O 0.3465662751145907 0.3810839899957436 0.5659978667106527
O 0.5965649303828888 0.3810847604559612 0.815997504319683
O 0.5965639163540065 0.381084269332448 0.0659977056908783
O 0.5965656500503556 0.3810850986129988 0.315997756650559
O 0.5965662790285367 0.3810839884768046 0.5659978755804042
O 0.7856599434467546 0.1606330519928205 0.842107177797908
O 0.7856599072488405 0.1606327513238979 0.09210711072114328
O 0.785659941634409 0.1606332377527517 0.3421071290661047
O 0.7856599504731322 0.1606325979567768 0.5921072543220288
O 0.0356599471571548 0.1606330557446224 0.8421071784355459
O 0.03565990484306143 0.1606327572275074 0.09210710970665757
O 0.0356599441186836 0.1606332438869656 0.3421071298207941
O 0.03565994834826371 0.1606326015193884 0.5921072552896932
O 0.2856599510276898 0.1606330556108876 0.8421071774321479
O 0.2856599064461002 0.1606327519145554 0.09210710811635842
O 0.2856599446906415 0.1606332411867938 0.3421071269695001
O 0.285659949315073 0.1606325957373014 0.592107252627745
O 0.5356599405872233 0.1606330562580311 0.8421071796832806
O 0.535659900245516 0.160632751601969 0.09210711193581614
O 0.5356599365538481 0.1606332413733627 0.342107127670618
O 0.5356599445305109 0.1606325980642907 0.5921072544384879
O 0.7848883071432148 0.3482365547318683 0.8429592306923538
O 0.7848880778493396 0.348235817895763 0.09295941673130877
O 0.7848875555730374 0.3482370724704018 0.3429592732008665
O 0.7848884379447483 0.3482362337879599 0.5929591688314768
O 0.03488827999076576 0.3482365349126013 0.8429592424456501
O 0.03488803974711409 0.3482358054970266 0.09295940867859691
O 0.03488754415620365 0.3482370646450294 0.3429592681783479
O 0.03488844476727695 0.3482362380268276 0.5929591686421938
O 0.2848882962818209 0.3482365374043541 0.8429592517505974
O 0.2848880772285015 0.3482358201192057 0.09295940173637772
O 0.2848875469439178 0.3482370597505039 0.3429592882987172
O 0.2848884567548452 0.3482362416897948 0.5929591513557425
O 0.534888277001824 0.3482365356437753 0.842959249023186
O 0.5348880483329933 0.348235808040762 0.09295939893916834
O 0.5348875430155873 0.3482370664952307 0.3429592786082226
O 0.5348884592320778 0.3482362427311355 0.5929591584510878
O 0.7854385186795588 0.2234788589752356 0.8419677310888691
O 0.7854385553933908 0.2234785001720613 0.09196756502858129
O 0.7854386432777947 0.2234790164988964 0.3419677744924537
O 0.7854386133911341 0.2234781837038645 0.5919679949499186
O 0.03543852020442946 0.2234788548380172 0.8419677340609463
O 0.03543854904518147 0.2234784981038396 0.09196756555734609
O 0.03543864366490535 0.2234790127124584 0.3419677755125193
O 0.03543860655208457 0.2234781798005628 0.5919679961522593
O 0.2854385235221403 0.2234788574253774 0.8419677338781058
O 0.2854385491458146 0.223478498918931 0.09196756481347701
O 0.2854386461437026 0.2234790104654482 0.3419677741333847
O 0.2854386096628021 0.2234781804543786 0.5919679945641837
O 0.5354385164281089 0.2234788515513067 0.841967733726787
O 0.535438549484445 0.2234784917504768 0.09196756421353022
O 0.5354386409337398 0.2234790100934118 0.3419677732572025
O 0.5354386111867354 0.2234781798034468 0.5919679954266038
O 0.7824466771355197 0.4127623214938924 0.8472730536310951
O 0.7824466359373642 0.4127617268707114 0.09727395310873074
O 0.7824454408071556 0.4127626045396297 0.3472730765162166
O 0.7824470674692842 0.4127624417311709 0.5972728045196919
O 0.03244658663368753 0.4127623163954335 0.8472730412876329
O 0.03244653660548901 0.4127617270248526 0.09727391784973068
O 0.03244541537266156 0.4127626075504713 0.347273054721759
O 0.03244709588257733 0.4127624454749698 0.5972728191046988
O 0.2824466490679914 0.4127623095731653 0.8472730712436348
O 0.2824466442425151 0.4127617295352735 0.09727393457784278
O 0.2824454260425037 0.4127625961891439 0.3472730848665646
O 0.2824471107769834 0.4127624462870314 0.5972727920537015
O 0.5324465950097141 0.412762310996681 0.8472730585015608
O 0.5324465370866437 0.4127617292462876 0.09727390106477972
O 0.532445406260369 0.4127626047795518 0.3472730733878204
O 0.5324471152328155 0.4127624522809502 0.5972727991090097
O 0.7848747893329914 0.09608667603784861 0.8426489975368836
O 0.7848746924988146 0.0960863645153586 0.09264895783108355
O 0.7848747340431823 0.09608685179511228 0.3426489856835527
O 0.7848748192337944 0.096086366254413 0.5926490228018589
O 0.0348747852190498 0.09608667712286903 0.8426489971581683
O 0.03487468833239945 0.09608636473924402 0.09264895916706882
O 0.03487473192639816 0.09608685221633902 0.3426489876575852
O 0.0348748194694886 0.09608636659509318 0.5926490216479111
O 0.2848747893971268 0.09608667997973397 0.8426489981769936
O 0.2848746948962646 0.09608636563413819 0.0926489624076796
O 0.2848747358307431 0.09608685444138459 0.3426489872274084
O 0.2848748229476997 0.09608636677698053 0.5926490232908495
O 0.5348747860434288 0.09608667617039232 0.8426489993813462
O 0.534874691213637 0.09608636353455804 0.09264896172372274
O 0.5348747298356282 0.09608685297687448 0.3426489860783596
O 0.5348748142153478 0.09608636465492411 0.5926490241976613
O 0.7847286833961772 0.2861348832787506 0.8430167688591839
O 0.7847289354134297 0.2861344068926196 0.09301656056808805
O 0.7847284880879921 0.286135179956438 0.3430169198632692
O 0.7847288290694034 0.2861341260603192 0.5930170699048364
O 0.03472867694004064 0.2861348757245548 0.8430167736830676
O 0.03472892391086629 0.2861343999769647 0.09301655650928184
O 0.03472848995078811 0.2861351717387404 0.3430169179521452
O 0.03472882633345509 0.2861341249941805 0.5930170682763733
O 0.2847286857850139 0.2861348767733858 0.8430167746845696
O 0.2847289318076763 0.2861344032231086 0.09301655515683109
O 0.2847284887267478 0.2861351700592007 0.343016924669955
O 0.2847288278788316 0.2861341229557717 0.5930170657559277
O 0.5347286761015151 0.2861348759005614 0.8430167726365385
O 0.5347289236258871 0.2861344014450796 0.09301655480994282
O 0.5347284854469264 0.2861351766904845 0.34301691917771
O 0.534728829894049 0.286134125092829 0.5930170688769887
O 0.7101569030832736 0.4421670850283383 0.8206843952188698
O 0.7101473684475796 0.442169438249398 0.07068427479380439
O 0.710174801002328 0.4421621821459078 0.3206868098194415
O 0.710160158329509 0.4421665178522778 0.5706817631508151
O 0.9601572517786887 0.4421670044141248 0.8206843929934088
O 0.9601476826918317 0.4421693781200813 0.0706842143684311
O 0.9601749165416613 0.4421621693774846 0.3206867603529999
O 0.9601600079599404 0.4421665510133554 0.5706817784676277
O 0.2101569924924218 0.4421670534788333 0.8206844540741132
O 0.2101473429433618 0.4421694544410095 0.0706842190422214
O 0.2101748883979067 0.4421621578644729 0.3206868470300382
O 0.2101599982208273 0.4421665685690754 0.5706817129466868
O 0.4601571693833606 0.4421670168588444 0.8206844437903129
O 0.4601477033894851 0.4421693834155203 0.07068417026516817
O 0.460174921828251 0.4421621554864839 0.3206868180570956
O 0.4601600859725245 0.4421665486515648 0.5706817246059204
O 0.8323157446683042 0.446783975485 0.8178757731781777
O 0.8323156403743039 0.4467835716256108 0.06787714489387724
O 0.8323144400204244 0.4467845018524561 0.3178748660686527
O 0.8323161639941029 0.4467837644216708 0.5678751877327026
O 0.08231569353014623 0.4467839650802973 0.8178757702267285
O 0.08231557314086191 0.4467835524158166 0.06787711253136716
O 0.08231443818800085 0.4467844963273054 0.3178748551835278
O 0.08231617012100614 0.44678377079077 0.5678752034567822
O 0.3323157200566172 0.446783977596693 0.817875799963354
O 0.3323156504491958 0.4467835685613871 0.06787712542605216
O 0.3323144405826718 0.4467845039941054 0.3178748847111009
O 0.3323161925304143 0.4467837656059008 0.5678751799772294
O 0.5823156778526272 0.4467839685557574 0.8178757851188574
O 0.5823155945750613 0.4467835500703993 0.06787710149039224
O 0.5823144174268241 0.4467844968633574 0.3178748689160915
O 0.582316200872986 0.4467837670654082 0.5678751824336907
O 0.8557600837498489 0.44613628111062 0.7537376118876293
O 0.8557582290869566 0.4461364147450402 0.003738209771134974
O 0.8557628362771041 0.4461363808593874 0.2537373103629799
O 0.8557608863947561 0.4461352600877113 0.5037387899394783
O 0.1057601298113393 0.4461363027465731 0.7537375924010579
O 0.105758296621086 0.4461364302233017 0.003738208944084459
O 0.105762940202777 0.4461364005827707 0.2537373204390705
O 0.1057608268932775 0.4461352454998549 0.5037388038476102
O 0.3557600599416135 0.4461362929963454 0.7537375979347684
O 0.3557582607442306 0.4461364093493869 0.003738218722625188
O 0.3557628402299009 0.4461363891366262 0.2537373093583005
O 0.3557608867426573 0.4461352446465772 0.5037388076019166
O 0.6057600452644311 0.4461362895134672 0.7537375924768648
O 0.6057583804489713 0.4461364407589007 0.003738206697214357
O 0.6057628687125719 0.4461363949749078 0.2537373150643777
O 0.6057609138830263 0.446135251899975 0.5037388006102073
O 0.730397765286868 0.4478041212597224 0.7532466621203584
O 0.7303996109793292 0.4478075999241377 0.003250474970048664
O 0.7303961141386941 0.4478007858212642 0.2532424150401216
O 0.7303958389403211 0.4477968386981515 0.5032422929822162
O 0.9803977679348104 0.4478040724789647 0.7532466004193965
O 0.9803995589896242 0.4478074438931681 0.003250361587378607
O 0.9803961239337272 0.4478006827153796 0.2532423512795446
O 0.9803958447022262 0.4477968880216845 0.5032423494808526
O 0.2303977876619647 0.4478042106483556 0.7532467231726828
O 0.230399572863995 0.4478075066265854 0.003250398047327644
O 0.2303961438128246 0.4478008360007052 0.2532424543576482
O 0.2303958228819933 0.4477967937691175 0.5032422589418891
O 0.4803977607389071 0.4478041660060227 0.753246688188149
O 0.4803995769676848 0.4478073681708584 0.003250291711066325
O 0.4803961259646361 0.4478007654687311 0.2532424281477807
O 0.480395846072256 0.4477967900091162 0.5032422619570454
H 0.6812363303637347 0.4376365467131763 0.7031546867722387
H 0.6812453321809363 0.4376333726573546 0.9531603001286147
H 0.6812303348194704 0.4376391331990206 0.2031482367855282
H 0.6812147705330266 0.4376430940921993 0.4531480921966703
H 0.9312362549559874 0.4376365771773953 0.7031546058643168
H 0.9312447624420545 0.4376334757701293 0.9531601503460657
H 0.9312300092034023 0.4376392082156533 0.2031481483023616
H 0.9312148729516585 0.4376430554868908 0.4531481615051676
H 0.1812366472277511 0.4376364834553834 0.7031547617971585
H 0.1812450107240556 0.4376334375258346 0.9531602030519006
H 0.181230516607671 0.4376391029376342 0.2031482886722819
H 0.1812145846020185 0.4376431203405055 0.4531480518954205
H 0.4312364612815632 0.4376365080896038 0.7031547178701185
H 0.4312446117324009 0.4376335291488578 0.953160059126824
H 0.4312302189349254 0.4376391454216539 0.2031482488399687
H 0.4312146112496747 0.43764312568678 0.4531480563169817
H 0.792279507876172 0.4337482818494158 0.6734845450980008
H 0.7922797267211574 0.4337473887503019 0.9234858951945769
H 0.7922805820473848 0.4337475656665633 0.1734826658620354
H 0.7922768874371167 0.4337515757857345 0.4234856511918995
H 0.04227953280052545 0.4337482743532143 0.6734845196093636
H 0.0422796904607908 0.4337474612846983 0.9234859195848394
H 0.04228059749099733 0.433747620745121 0.1734826857577547
H 0.0422768741634243 0.4337515693904501 0.4234856634869002
H 0.2922795533805412 0.4337482434598587 0.673484522430833
H 0.2922796876867517 0.4337474220769915 0.9234859071131307
H 0.2922806095064692 0.4337475547719922 0.1734826517362514
H 0.2922768514712974 0.4337515939985112 0.4234856684134322
H 0.5422795253716479 0.4337482631685255 0.6734845293867365
H 0.5422797099282791 0.4337474713936383 0.9234859112964963
H 0.542280592639255 0.4337476026529605 0.1734826795644419
H 0.542276872045064 0.4337515954892707 0.4234856640823595
H 0.7713000971156921 0.4305773300250032 0.710889225172865
H 0.7712964108480612 0.4305784798649324 0.960892744277362
H 0.7713041731652449 0.4305759048656365 0.2108849512948818
H 0.7713057282674421 0.430575062731562 0.4608864071774898
H 0.02130021164694483 0.4305773352545971 0.71088917919973
H 0.02129665976222433 0.4305784417361738 0.9608926828347814
H 0.02130439384536697 0.4305759011301008 0.2108849278563026
H 0.02130561582443016 0.4305750518776978 0.4608864372436572
H 0.271299993384825 0.4305773609407081 0.7108892551752161
H 0.2712965255392679 0.4305784376533636 0.9608926953276395
H 0.2713041296711318 0.4305759262278908 0.2108849636024104
H 0.2713057586106565 0.4305750299387917 0.460886391206298
H 0.5213000313121078 0.430577340939943 0.7108892317795398
H 0.5212968173695551 0.4305784395745694 0.9608926470272796
H 0.5213042413025398 0.4305759100560945 0.2108849621418717
H 0.5213057874123124 0.430575041864308 0.4608863935986797
H 0.8487999707351308 0.4474640148921504 0.6754030124704294
H 0.848799369841569 0.4474641281832124 0.9254032873696982
H 0.8488008175213945 0.4474637524204604 0.1754024195589567
H 0.8488002550961665 0.4474633879656311 0.4254055250065551
H 0.09880001590637057 0.4474640277621184 0.675402999676561
H 0.09879939047298004 0.4474641400326878 0.9254033168725668
H 0.09880087287338769 0.4474637743033367 0.175402438213568
H 0.0988002228669401 0.4474633771169995 0.4254055386939433
H 0.3487999912737869 0.4474640190765399 0.6754029961389152
H 0.3487993589304692 0.4474641233853918 0.9254033077677232
H 0.348800835406138 0.4474637593327999 0.1754024043441694
H 0.3488002284700298 0.4474633848498679 0.4254055507765899
H 0.5987999817691105 0.4474640189062248 0.6754030077101673
H 0.5987994417878114 0.4474641593906543 0.9254033179730489
H 0.5988008438584473 0.4474637675545403 0.1754024296825992
H 0.5988002503522168 0.4474633916026604 0.4254055441543907
H 0.6300068142600795 0.4350636544557851 0.6425621254071989
H 0.6300075127763183 0.4350637726032592 0.8925627368306298
H 0.6300077195757038 0.4350624431075903 0.1425624795361022
H 0.6300020340689622 0.4350633303888764 0.3925628642190701
H 0.8800067905691612 0.4350636493714203 0.6425621245502434
H 0.8800075518563504 0.4350637799382335 0.8925627521372946
H 0.8800078052744862 0.4350624456466362 0.1425625244456912
H 0.880002079607511 0.4350633407038182 0.3925628616692168
