data_CUCHA550CRV2NOO3_publ

_pd_block_id
  2016-08-25T18:47|CUCHA550CRV2NOO3|baar|17bm

_audit_creation_method  "from EXP file using GSAS2CIF"
_audit_creation_date                   2016-08-25T18:47
_audit_author_name                     baar
_audit_update_record
; 2016-08-25T18:47  Initial CIF as created by GSAS2CIF
;

#=============================================================================
# this information describes the project, paper etc. for the CIF             #
# Acta Cryst. Section C papers and editorial correspondence is generated     #
# from the information in this section                                       #
#                                                                            #
#   (from)   CIF submission form for Rietveld refinements (Acta Cryst. C)    #
#                                                 Version 14 December 1998   #
#=============================================================================
# 1. SUBMISSION DETAILS

_publ_contact_author_name            ?   # Name of author for correspondence
_publ_contact_author_address             # Address of author for correspondence
; ?
;
_publ_contact_author_email           ?
_publ_contact_author_fax             ?
_publ_contact_author_phone           ?

_publ_contact_letter
; ?
;

_publ_requested_journal              ?
_publ_requested_coeditor_name        ?
_publ_requested_category             ?   # Acta C: one of CI/CM/CO/FI/FM/FO

#==============================================================================

# 2. PROCESSING SUMMARY (IUCr Office Use Only)

_journal_data_validation_number      ?

_journal_date_recd_electronic        ?
_journal_date_to_coeditor            ?
_journal_date_from_coeditor          ?
_journal_date_accepted               ?
_journal_date_printers_first         ?
_journal_date_printers_final         ?
_journal_date_proofs_out             ?
_journal_date_proofs_in              ?
_journal_coeditor_name               ?
_journal_coeditor_code               ?
_journal_coeditor_notes
; ?
;
_journal_techeditor_code             ?
_journal_techeditor_notes
; ?
;
_journal_coden_ASTM                  ?
_journal_name_full                   ?
_journal_year                        ?
_journal_volume                      ?
_journal_issue                       ?
_journal_page_first                  ?
_journal_page_last                   ?
_journal_paper_category              ?
_journal_suppl_publ_number           ?
_journal_suppl_publ_pages            ?

#==============================================================================

# 3. TITLE AND AUTHOR LIST

_publ_section_title
; ?
;
_publ_section_title_footnote
; ?
;

# The loop structure below should contain the names and addresses of all
# authors, in the required order of publication. Repeat as necessary.

loop_
	_publ_author_name
        _publ_author_footnote
	_publ_author_address
 ?                                   #<--'Last name, first name'
; ?
;
; ?
;

#==============================================================================

# 4. TEXT

_publ_section_synopsis
;  ?
;
_publ_section_abstract
; ?
;
_publ_section_comment
; ?
;
_publ_section_exptl_prep      # Details of the preparation of the sample(s)
                              # should be given here.
; ?
;
_publ_section_exptl_refinement
; ?
;
_publ_section_references
; ?
;
_publ_section_figure_captions
; ?
;
_publ_section_acknowledgements
; ?
;

#=============================================================================
# 5. OVERALL REFINEMENT & COMPUTING DETAILS

_refine_special_details
; ?
;
_pd_proc_ls_special_details
; ?
;

# The following items are used to identify the programs used.
_computing_molecular_graphics     ?
_computing_publication_material   ?

_refine_ls_weighting_scheme       ?
_refine_ls_weighting_details      ?
_refine_ls_hydrogen_treatment     ?
_refine_ls_extinction_method      ?
_refine_ls_extinction_coef        ?
_refine_ls_number_constraints     ?

_refine_ls_restrained_S_all       ?
_refine_ls_restrained_S_obs       ?

#==============================================================================
# 6. SAMPLE PREPARATION DATA

# (In the unusual case where multiple samples are used in a single
#  Rietveld study, this information should be moved into the phase
#  blocks)

# The following three fields describe the preparation of the material.
# The cooling rate is in K/min.  The pressure at which the sample was
# prepared is in kPa.  The temperature of preparation is in K.

_pd_prep_cool_rate                ?
_pd_prep_pressure                 ?
_pd_prep_temperature              ?

_pd_char_colour                   ?       # use ICDD colour descriptions
_refine_ls_shift/su_max                0.16
_refine_ls_shift/su_mean               0.06
_computing_structure_refinement        GSAS
_refine_ls_number_parameters           16
_refine_ls_goodness_of_fit_all         1.94
_refine_ls_number_restraints           4
_refine_ls_matrix_type                 full
#==============================================================================
# 7. CHEMICAL, STRUCTURAL AND CRYSTAL DATA

_pd_char_particle_morphology      ?

_chemical_name_systematic
; ?
;
_chemical_name_common             ?
_chemical_formula_moiety          ?
_chemical_formula_structural      ?
_chemical_formula_analytical      ?
_chemical_melting_point           ?
_chemical_compound_source         ?       # for minerals and
                                          # natural products
_symmetry_space_group_name_Hall   ?

_exptl_crystal_F_000               ?
_exptl_crystal_density_diffrn      ?
_exptl_crystal_density_meas        ?
_exptl_crystal_density_method      ?

_cell_measurement_temperature     ?

_cell_special_details
; ?
;

_geom_special_details             ?

# The following item identifies the program(s) used (if appropriate).
_computing_structure_solution     ?

#==============================================================================

# 8. Phase information from GSAS

_pd_phase_name
    "from /Users/baharipek/Documents/17BMNov2014/CuCHA5/CUSSRV2.cif"
_cell_length_a                         13.50284(20)
_cell_length_b                         13.50284
_cell_length_c                         15.1105(6)
_cell_angle_alpha                      90.0
_cell_angle_beta                       90.0
_cell_angle_gamma                      120.0
_cell_volume                           2385.95(9)
_symmetry_cell_setting                 trigonal
_symmetry_space_group_name_H-M         "R -3 m"
loop_ _symmetry_equiv_pos_site_id _symmetry_equiv_pos_as_xyz
       1 +x,+y,+z 
       2 -y,x-y,+z 
       3 y-x,-x,+z 
       4 y-x,+y,+z 
       5 -y,-x,+z 
       6 +x,x-y,+z 
      -1 -x,-y,-z 
      -2 +y,y-x,-z 
      -3 x-y,+x,-z 
      -4 x-y,-y,-z 
      -5 +y,+x,-z 
      -6 -x,y-x,-z 
     101 +x+1/3,+y+2/3,+z+2/3 
     102 -y+1/3,x-y+2/3,+z+2/3 
     103 y-x+1/3,-x+2/3,+z+2/3 
     104 y-x+1/3,+y+2/3,+z+2/3 
     105 -y+1/3,-x+2/3,+z+2/3 
     106 +x+1/3,x-y+2/3,+z+2/3 
    -101 -x+2/3,-y+1/3,-z+1/3 
    -102 +y+2/3,y-x+1/3,-z+1/3 
    -103 x-y+2/3,+x+1/3,-z+1/3 
    -104 x-y+2/3,-y+1/3,-z+1/3 
    -105 +y+2/3,+x+1/3,-z+1/3 
    -106 -x+2/3,y-x+1/3,-z+1/3 
     201 +x+2/3,+y+1/3,+z+1/3 
     202 -y+2/3,x-y+1/3,+z+1/3 
     203 y-x+2/3,-x+1/3,+z+1/3 
     204 y-x+2/3,+y+1/3,+z+1/3 
     205 -y+2/3,-x+1/3,+z+1/3 
     206 +x+2/3,x-y+1/3,+z+1/3 
    -201 -x+1/3,-y+2/3,-z+2/3 
    -202 +y+1/3,y-x+2/3,-z+2/3 
    -203 x-y+1/3,+x+2/3,-z+2/3 
    -204 x-y+1/3,-y+2/3,-z+2/3 
    -205 +y+1/3,+x+2/3,-z+2/3 
    -206 -x+1/3,y-x+2/3,-z+2/3 

# ATOMIC COORDINATES AND DISPLACEMENT PARAMETERS


loop_
      _atom_site_type_symbol
      _atom_site_label
      _atom_site_fract_x
      _atom_site_fract_y
      _atom_site_fract_z
      _atom_site_occupancy
      _atom_site_thermal_displace_type
      _atom_site_U_iso_or_equiv
      _atom_site_symmetry_multiplicity
Si
Si     -0.00060(17)  0.22901(14)  0.10174(13)  0.8333     Uiso   0.0330(6)    36
Al
Al     -0.00060(17)  0.22901(14)  0.10174(13)  0.1667     Uiso   0.0330(6)    36
O 
O1      0.90640(22)  0.09359(22)  0.1121(4)    1.0        Uani   0.05761      18
O 
O2      0.9749(4)    0.3083(4)    0.1667       1.0        Uani   0.04186      18
O 
O3      0.12109(24)  0.2421(5)    0.1282(4)    1.0        Uani   0.06324      18
O 
O4      0.0          0.2690(4)    0.0          1.0        Uani   0.04217      18
Cu
Cu      0.0          0.0          0.101        0.123(4)   Uiso   0.00777       6
Cu
Cu2     0.147        0.298        0.432        0.0055(7)  Uiso   0.08869      36
Cu
Cu3     0.0          0.0          0.14         0.148(4)   Uiso   0.0077        6

loop_ _atom_site_aniso_label
      _atom_site_aniso_U_11
      _atom_site_aniso_U_12
      _atom_site_aniso_U_13
      _atom_site_aniso_U_22
      _atom_site_aniso_U_23
      _atom_site_aniso_U_33
O1      0.06851     0.03179     0.00666     0.06851    -0.00666     0.03252   
O2      0.04318     0.03129     0.00532     0.04318    -0.00532     0.05216   
O3      0.05622     0.03968    -0.00133     0.07936    -0.00267     0.06186   
O4      0.0478      0.0239     -0.00341     0.05385    -0.00171     0.02285   
 
# If you change Z, be sure to change all 3 of the following
_chemical_formula_sum                  "Al0.08 Cu0.03 O Si0.42"
_chemical_formula_weight               31.56
_cell_formula_units_Z                  72

# MOLECULAR GEOMETRY

loop_
      _geom_bond_atom_site_label_1
      _geom_bond_atom_site_label_2
      _geom_bond_distance
      _geom_bond_site_symmetry_1
      _geom_bond_site_symmetry_2
      _geom_bond_publ_flag
  Si        Al                3.108(4)  .      4_555  N
  Si        Al                3.084(4)  .      5_555  N
  Si        Al                3.075(4)  .     -6_555  N
  Si        O1              1.6276(21)  .      1_455  N
  Si        O2              1.6043(19)  .      1_455  N
  Si        O3              1.6124(21)  .      1_555  N
  Si        O4              1.6283(19)  .      1_555  N
  Si        Cu              3.0963(15)  .      1_555  N
  Si        Cu2             3.6526(15)  .    102_554  N
  Si        Cu2             3.7063(15)  .    105_554  N
  Si        Cu2             3.0334(20)  .   -101_444  N
  Si        Cu2             3.0056(20)  .   -104_444  N
  Si        Cu3             3.1498(15)  .      1_555  N
  Al        Si                3.108(4)  .      4_555  N
  Al        Si                3.084(4)  .      5_555  N
  Al        Si                3.075(4)  .     -6_555  N
  Al        Al                3.108(4)  .      4_555  N
  Al        Al                3.084(4)  .      5_555  N
  Al        Al                3.075(4)  .     -6_555  N
  Al        Al                3.120(4)  .   -205_344  N
  Al        O1              1.6276(21)  .      1_455  N
  Al        O2              1.6043(19)  .      1_455  N
  Al        O3              1.6124(21)  .      1_555  N
  Al        O4              1.6283(19)  .      1_555  N
  Al        Cu              3.0963(15)  .      1_555  N
  Al        Cu2             3.6526(15)  .    102_554  N
  Al        Cu2             3.7063(15)  .    105_554  N
  Al        Cu2             3.0334(20)  .   -101_444  N
  Al        Cu2             3.0056(20)  .   -104_444  N
  Al        Cu3             3.1498(15)  .      1_555  N
  O1        Si              1.6276(21)  .      1_655  N
  O1        Si              1.6275(21)  .      5_655  N
  O1        Al              1.6276(21)  .      1_655  N
  O1        Al              1.6275(21)  .      5_655  N
  O1        Cu                2.195(5)  .      1_655  N
  O1        Cu3               2.229(5)  .      1_655  N
  O2        Si              1.6043(19)  .      1_655  N
  O2        Si              1.6025(19)  .   -205_444  N
  O2        Al              1.6043(19)  .      1_655  N
  O2        Al              1.6025(19)  .   -205_444  N
  O2        Cu2             2.6974(34)  .    102_654  N
  O2        Cu2             2.7454(34)  .    105_654  N
  O2        Cu2             2.7461(34)  .   -101_544  N
  O2        Cu2             2.6981(34)  .   -104_544  N
  O3        Si              1.6124(21)  .      1_555  N
  O3        Si              1.6117(21)  .      4_555  N
  O3        Al              1.6124(21)  .      1_555  N
  O3        Al              1.6117(21)  .      4_555  N
  O3        Cu                2.861(6)  .      1_555  N
  O3        Cu2               2.186(6)  .   -101_444  N
  O3        Cu2               2.186(6)  .   -104_444  N
  O3        Cu3               2.837(6)  .      1_555  N
  O4        Si              1.6283(19)  .      1_555  N
  O4        Si              1.6283(19)  .     -6_555  N
  O4        Al              1.6283(19)  .      1_555  N
  O4        Al              1.6283(19)  .     -6_555  N
  Cu        Si              3.0963(15)  .      1_555  N
  Cu        Si              3.0963(15)  .      2_555  N
  Cu        Si              3.0963(15)  .      3_555  N
  Cu        Si              3.0963(15)  .      4_555  N
  Cu        Si              3.0963(15)  .      5_555  N
  Cu        Si              3.0963(15)  .      6_555  N
  Cu        Al              3.0963(15)  .      1_555  N
  Cu        Al              3.0963(15)  .      2_555  N
  Cu        Al              3.0963(15)  .      3_555  N
  Cu        Al              3.0963(15)  .      4_555  N
  Cu        Al              3.0963(15)  .      5_555  N
  Cu        Al              3.0963(15)  .      6_555  N
  Cu        O1                2.195(5)  .      1_455  N
  Cu        O1                2.195(5)  .      2_545  N
  Cu        O1                2.195(5)  .      3_665  N
  Cu        O3                2.861(6)  .      1_555  N
  Cu        O3                2.861(6)  .      2_555  N
  Cu        O3                2.861(6)  .      3_555  N
  Cu        Cu             3.05233(11)  .     -1_555  N
  Cu        Cu3           0.589310(20)  .      1_555  N
  Cu        Cu3            3.64164(14)  .     -1_555  N
  Cu2       Si              3.0334(20)  .   -101_444  N
  Cu2       Si              3.0056(20)  .   -104_444  N
  Cu2       Si              3.6526(15)  .    203_455  N
  Cu2       Si              3.7063(15)  .    205_555  N
  Cu2       Al              3.0334(20)  .   -101_444  N
  Cu2       Al              3.0056(20)  .   -104_444  N
  Cu2       Al              3.6526(15)  .    203_455  N
  Cu2       Al              3.7063(15)  .    205_555  N
  Cu2       O2              2.7461(34)  .   -101_544  N
  Cu2       O2              2.6981(34)  .   -104_344  N
  Cu2       O3                2.186(6)  .   -101_444  N
  Cu2       Cu2                0.05401  .      4_555  N
  Cu2       Cu2             4.04566(6)  .     -2_556  N
  Cu2       Cu2             4.04566(6)  .     -3_556  N
  Cu2       Cu2             4.08593(6)  .     -5_556  N
  Cu2       Cu2             4.00535(6)  .     -6_556  N
  Cu2       Cu2            3.09467(11)  .   -101_444  N
  Cu2       Cu2            3.09420(11)  .   -104_444  N
  Cu3       Si              3.1498(15)  .      1_555  N
  Cu3       Si              3.1498(15)  .      2_555  N
  Cu3       Si              3.1498(15)  .      3_555  N
  Cu3       Si              3.1498(15)  .      4_555  N
  Cu3       Si              3.1498(15)  .      5_555  N
  Cu3       Si              3.1498(15)  .      6_555  N
  Cu3       Al              3.1498(15)  .      1_555  N
  Cu3       Al              3.1498(15)  .      2_555  N
  Cu3       Al              3.1498(15)  .      3_555  N
  Cu3       Al              3.1498(15)  .      4_555  N
  Cu3       Al              3.1498(15)  .      5_555  N
  Cu3       Al              3.1498(15)  .      6_555  N
  Cu3       O1                2.229(5)  .      1_455  N
  Cu3       O1                2.229(5)  .      2_545  N
  Cu3       O1                2.229(5)  .      3_665  N
  Cu3       O3                2.837(6)  .      1_555  N
  Cu3       O3                2.837(6)  .      2_555  N
  Cu3       O3                2.837(6)  .      3_555  N
  Cu3       Cu            0.589310(20)  .      1_555  N
  Cu3       Cu             3.64164(14)  .     -1_555  N
  Cu3       Cu3            4.23095(16)  .     -1_555  N

loop_
      _geom_angle_atom_site_label_1
      _geom_angle_atom_site_label_2
      _geom_angle_atom_site_label_3
      _geom_angle
      _geom_angle_site_symmetry_1
      _geom_angle_site_symmetry_2
      _geom_angle_site_symmetry_3
      _geom_angle_publ_flag
  O1        Si        O2              112.97(32)      1_455  .      1_455  N
  O1        Si        O3              105.72(28)      1_455  .      1_555  N
  O1        Si        O4              109.69(30)      1_455  .      1_555  N
  O2        Si        O3              108.29(24)      1_455  .      1_555  N
  O2        Si        O4              108.93(18)      1_455  .      1_555  N
  O3        Si        O4              111.21(29)      1_555  .      1_555  N
  O1        Al        O2              112.97(32)      1_455  .      1_455  N
  O1        Al        O3              105.72(28)      1_455  .      1_555  N
  O1        Al        O4              109.69(30)      1_455  .      1_555  N
  O2        Al        O3              108.29(24)      1_455  .      1_555  N
  O2        Al        O4              108.93(18)      1_455  .      1_555  N
  O3        Al        O4              111.21(29)      1_555  .      1_555  N
  Si        O1        Si                142.7(4)      1_655  .      5_655  N
  Si        O1        Al                     0.0      1_655  .      1_655  N
  Si        O1        Al                142.7(4)      1_655  .      5_655  N
  Si        O1        Al                142.7(4)      5_655  .      1_655  N
  Si        O1        Al                     0.0      5_655  .      5_655  N
  Al        O1        Al                142.7(4)      1_655  .      5_655  N
  Si        O2        Si                153.3(4)      1_655  .   -205_444  N
  Si        O2        Al                     0.0      1_655  .      1_655  N
  Si        O2        Al                153.3(4)      1_655  .   -205_444  N
  Si        O2        Al                153.3(4)   -205_444  .      1_655  N
  Si        O2        Al                     0.0   -205_444  .   -205_444  N
  Al        O2        Al                153.3(4)      1_655  .   -205_444  N
  Si        O3        Si                149.2(5)      1_555  .      4_555  N
  Si        O3        Al                     0.0      1_555  .      1_555  N
  Si        O3        Al                149.2(5)      1_555  .      4_555  N
  Si        O3        Al                149.2(5)      4_555  .      1_555  N
  Si        O3        Al                     0.0      4_555  .      4_555  N
  Al        O3        Al                149.2(5)      1_555  .      4_555  N
  Si        O4        Si                141.5(4)      1_555  .     -6_555  N
  Si        O4        Al                     0.0      1_555  .      1_555  N
  Si        O4        Al                141.5(4)      1_555  .     -6_555  N
  Si        O4        Al                141.5(4)     -6_555  .      1_555  N
  Si        O4        Al                     0.0     -6_555  .     -6_555  N
  Al        O4        Al                141.5(4)      1_555  .     -6_555  N

# Powder diffraction data for histogram  1
#==============================================================================
# 9. INSTRUMENT CHARACTERIZATION

_exptl_special_details
; ?
;

# if regions of the data are excluded, the reason(s) are supplied here:
_pd_proc_info_excluded_regions
; ?
;

# The following item is used to identify the equipment used to record
# the powder pattern when the diffractogram was measured at a laboratory
# other than the authors' home institution, e.g. when neutron or synchrotron
# radiation is used.

_pd_instr_location
; ?
;
_pd_calibration_special_details           # description of the method used
                                          # to calibrate the instrument
; ?
;

_diffrn_ambient_temperature       ?
_diffrn_source                    ?
_diffrn_source_target             ?
_diffrn_source_type               ?
_diffrn_measurement_device_type   ?
_diffrn_detector                  ?
_diffrn_detector_type             ?       # make or model of detector

_pd_meas_scan_method              ?       # options are 'step', 'cont',
                                          # 'tof', 'fixed' or
                                          # 'disp' (= dispersive)
_pd_meas_special_details
;  ?
;

# The following two items identify the program(s) used (if appropriate).
_computing_data_collection        ?
_computing_data_reduction         ?

# Describe any processing performed on the data, prior to refinement.
# For example: a manual Lp correction or a precomputed absorption correction
_pd_proc_info_data_reduction      ?

# The following item is used for angular dispersive measurements only.

_diffrn_radiation_monochromator   ?

# The following items are used to define the size of the instrument.
# Not all distances are appropriate for all instrument types.

_pd_instr_dist_src/mono           ?
_pd_instr_dist_mono/spec          ?
_pd_instr_dist_src/spec           ?
_pd_instr_dist_spec/anal          ?
_pd_instr_dist_anal/detc          ?
_pd_instr_dist_spec/detc          ?

# 10. Specimen size and mounting information

# The next three fields give the specimen dimensions in mm.  The equatorial
# plane contains the incident and diffracted beam.

_pd_spec_size_axial               ?       # perpendicular to
                                          # equatorial plane

_pd_spec_size_equat               ?       # parallel to
                                          # scattering vector
                                          # in transmission

_pd_spec_size_thick               ?       # parallel to
                                          # scattering vector
                                          # in reflection

_pd_spec_mounting                         # This field should be
                                          # used to give details of the
                                          # container.
; ?
;

_pd_spec_mount_mode               ?       # options are 'reflection'
                                          # or 'transmission'

_pd_spec_shape                    ?       # options are 'cylinder'
                                          # 'flat_sheet' or 'irregular'


loop_ _atom_type_symbol
      _atom_type_number_in_cell
      _atom_type_scat_dispersion_real
      _atom_type_scat_dispersion_imag
      _atom_type_scat_Cromer_Mann_a1
      _atom_type_scat_Cromer_Mann_a2
      _atom_type_scat_Cromer_Mann_a3
      _atom_type_scat_Cromer_Mann_a4
      _atom_type_scat_Cromer_Mann_b1
      _atom_type_scat_Cromer_Mann_b2
      _atom_type_scat_Cromer_Mann_b3
      _atom_type_scat_Cromer_Mann_b4
      _atom_type_scat_Cromer_Mann_c
      _atom_type_scat_source
  Si        29.999    0.000    0.000
 6.29150 2.43860 3.03530 32.3337 1.98910 0.67850 1.54100 81.6937 1.14070 
  International_Tables_Vol_C
  Al         6.001    0.000    0.000
 6.42020 3.03870 1.90020 0.74260 1.59360 31.5472 1.96460 85.0886 1.11510 
  International_Tables_Vol_C
  O         72.0    0.000    0.000
 3.04850 13.2771 2.28680 5.70110 1.54630 0.32390 0.86700 32.9089 0.25080 
  International_Tables_Vol_C
  Cu         1.823    0.000    0.000
 13.3380 3.58280 7.16760 0.24700 5.61580 11.3966 1.67350 64.8126 1.19100 
  International_Tables_Vol_C
_diffrn_radiation_probe                x-ray
_diffrn_radiation_polarisn_ratio       0.99
_diffrn_radiation_wavelength           0.75009
_diffrn_radiation_type                 ?
_pd_proc_ls_prof_R_factor              0.0241
_pd_proc_ls_prof_wR_factor             0.0335
_pd_proc_ls_prof_wR_expected           0.0177
_refine_ls_R_Fsqd_factor               0.08554

_pd_proc_ls_background_function
;   GSAS Background function number 1 with 30 terms.
 Shifted Chebyshev function of 1st kind
      1:    2284.83     2:   -1073.11     3:    155.947     4:    483.896    
      5:   -545.994     6:    224.867     7:    145.991     8:   -323.006    
      9:    246.272    10:   -51.8056    11:   -94.5468    12:    131.495    
     13:   -97.7317    14:    23.6764    15:    51.7003    16:   -83.9034    
     17:    49.7403    18:    11.4006    19:   -41.4778    20:    32.4304    
     21:   -14.2575    22:    2.46059    23:    11.7084    24:   -18.3606    
     25:    8.99394    26:    2.85718    27:   -3.53061    28:   0.480368    
     29:   0.386788    30:    1.14737    
;

_exptl_absorpt_process_details
;   GSAS Absorption/surface roughness correction: function number 0
 No correction is applied.
;
_exptl_absorpt_correction_T_min        1.00000
_exptl_absorpt_correction_T_max        1.00000
# Extinction correction
_gsas_exptl_extinct_corr_T_min         1.00000
_gsas_exptl_extinct_corr_T_max         1.00000

_pd_proc_ls_profile_function
;
 CW Profile function number 4 with  15 terms
 Pseudovoigt profile coefficients as parameterized in
 P. Thompson, D.E. Cox & J.B. Hastings (1987). J. Appl. Cryst.,20,79-83.
 Asymmetry correction of L.W. Finger, D.E. Cox & A. P. Jephcoat (1994).
 J. Appl. Cryst.,27,892-900.
 Microstrain broadening by P.W. Stephens,  (1999). J. Appl. Cryst.,32,281-289.
 #1(GU)   =  263.613 #2(GV)   =   46.518 #3(GW)   =  -13.091
 #4(GP)   =   18.637 #5(LX)   =    2.292 #6(ptec) =    -1.19
 #7(trns) =    -4.74 #8(shft) =   0.0091 #9(sfec) =     0.00
 #10(S/L) =   0.0015 #11(H/L) =   0.0037 #12(eta) =   0.1626
 #13(S400 ) =  1.6E-02 #14(S004 ) =  9.8E-02
 #15(S202 ) = -3.3E-02 #16(S301 ) =  0.0E+00
 Peak tails are ignored  where the intensity is below 0.0001 times the peak
   Aniso. broadening axis   0.0   0.0   1.0
;
_pd_proc_ls_peak_cutoff 0.00010
_pd_proc_info_datetime                 2016-08-25T18:47:32
_pd_calc_method                        "Rietveld Refinement"

#---- raw/calc data loop -----
_pd_meas_2theta_range_min              3.0
_pd_meas_2theta_range_max              35.98
_pd_meas_2theta_range_inc              0.02
_pd_proc_2theta_range_min              3.0085
_pd_proc_2theta_range_max              35.98849
_pd_proc_2theta_range_inc              0.02

loop_
      _pd_meas_counts_total
      _pd_proc_ls_weight
      _pd_proc_intensity_bkg_calc
      _pd_calc_intensity_total
  2929.3      0.0        -7505825.00000   .
  2899.6      0.0        -7001574.00000   .
  2906.1      0.0        -6528569.00000   .
  2911.7      0.0        -6085029.50000   .
  2898.7      0.0        -5669256.00000   .
  2918.8      0.0        -5279654.50000   .
  2911.4      0.0        -4914697.50000   .
  2935.5      0.0        -4572952.00000   .
  2914.7      0.0        -4253063.50000   .
  2926.4      0.0        -3953742.00000   .
  2908.6      0.0        -3673775.25000   .
  2908.1      0.0        -3412007.25000   .
  2913.4      0.0        -3167354.00000   .
  2897.5      0.0        -2938787.00000   .
  2920.6      0.0        -2725333.75000   .
  2904.3      0.0        -2526080.00000   .
  2909.3      0.0        -2340158.00000   .
  2901.4      0.0        -2166752.25000   .
  2911.8      0.0        -2005087.50000   .
  2919.2      0.0        -1854436.37500   .
  2904.2      0.0        -1714116.25000   .
  2912.2      0.0        -1583475.62500   .
  2908.1      0.0        -1461905.75000   .
  2931.4      0.0        -1348831.50000   .
  2915.1      0.0        -1243710.75000   .
  2934.4      0.0        -1146033.50000   .
  2924.8      0.0        -1055318.75000   .
  2922.3      0.0        -971114.50000    .
  2945.8      0.0        -892995.68750    .
  2943.2      0.0        -820562.81250    .
  2958.4      0.0        -753438.75000    .
  2959.6      0.0        -691270.81250    .
  2983.4      0.0        -633725.56250    .
  2985.7      0.0        -580493.81250    .
  3007.0      0.0        -531281.06250    .
  2998.2      0.0        -485812.56250    .
  2992.2      0.0        -443831.53125    .
  2995.0      0.0        -405095.87500    .
  2977.0      0.0        -369378.96875    .
  2993.4      0.0        -336468.65625    .
  2984.7      0.0        -306166.62500    .
  2991.4      0.0        -278286.59375    .
  3006.1      0.0        -252654.89063    .
  2996.3      0.0        -229108.07813    .
  3011.3      0.0        -207494.43750    .
  2998.1      0.0        -187672.10938    .
  3022.9      0.0        -169508.00000    .
  3014.7      0.0        -152878.15625    .
  3042.5      0.0        -137667.25000    .
  3040.5      0.0        -123767.14844    .
  3058.5      0.0        -111077.54688    .
  3058.2      0.0        -99504.72656     .
  3073.0      0.0        -88961.75781     .
  3089.1      0.0        -79367.32813     .
  3095.9      0.0        -70646.17969     .
  3131.4      0.0        -62728.14063     .
  3141.7      0.0        -55548.29688     .
  3171.1      0.0        -49046.12500     .
  3180.2      0.0        -43165.60938     .
  3206.7      0.0        -37854.81250     .
  3255.1      0.0        -33065.69141     .
  3256.1      0.0        -28753.69531     .
  3286.1      0.0        -24877.55664     .
  3281.7      0.0        -21399.23047     .
  3295.0      0.0        -18283.64258     .
  3318.0      0.0        -15498.30273     .
  3355.2      0.0        -13013.28906     .
  3398.4      0.0        -10801.01660     .
  3461.2      0.0        -8836.12695      .
  3531.4      0.0        -7095.31494      .
  3617.5      0.0        -5557.12354      .
  3746.9      0.0        -4201.90869      .
  3888.8      0.0        -3011.62036      .
  4160.6      0.0        -1969.74597      .
  4565.6      0.0        -1061.17871      .
  5353.8      0.0        -272.11154       .
  7308.8      0.0         410.04376       .
  11310.1     0.0         996.79517       .
  23891.9     0.0         1498.56726      .
  52437.9     0.0         1924.88147      .
  115447.1    0.0         2284.35278      .
  200805.5    0.0         2584.78296      .
  246424.0    0.0         2833.26294      .
  218218.0    0.0         3036.16382      .
  137455.3    0.0         3199.24170      .
  65038.1     0.0         3327.68945      .
  29542.4     0.0         3426.13672      .
  13399.8     0.0         3498.75586      .
  7965.7      0.0         3549.27393      .
  5525.8      0.0         3580.99854      .
  4558.4      0.0         3596.88477      .
  4119.1      0.0         3599.54614      .
  3850.2      0.0         3591.28711      .
  3687.1      0.0         3574.14038      .
  3571.5      0.0         3549.89063      .
  3460.1      0.0         3520.08789      .
  3413.1      0.0         3486.08301      .
  3342.1      0.0         3449.04248      .
  3297.1      0.0         3409.96460      .
  3257.1      0.0         3369.70386      .
  3225.1      0.0         3328.97803      .
  3216.3      0.0         3288.38965      .
  3188.8      0.0         3248.43555      .
  3196.9      0.0         3209.51904      .
  3168.6      0.0         3171.96411      .
  3163.0      0.0         3136.02075      .
  3142.6      0.0         3101.87671      .
  3120.2      0.0         3069.66626      .
  3110.7      0.0         3039.47534      .
  3087.6      0.0         3011.35107      .
  3073.9      0.0         2985.30518      .
  3065.3      0.0         2961.32104      .
  3045.6      0.0         2939.35693      .
  3017.6      0.0         2919.35376      .
  3004.4      0.0         2901.23462      .
  2995.0      0.0         2884.91113      .
  2982.5      0.0         2870.28516      .
  2971.7      0.0         2857.25220      .
  2961.9      0.0         2845.70288      .
  2955.7      0.0         2835.52539      .
  2946.2      0.0         2826.60791      .
  2944.6      0.0         2818.83862      .
  2935.5      0.0         2812.10815      .
  2936.4      0.0         2806.31030      .
  2927.0      0.0         2801.34229      .
  2925.0      0.0         2797.10620      .
  2930.3      0.0003413   2793.50977      2907.37158
  2912.8      0.0003433   2790.46533      2901.19165
  2914.4      0.0003431   2787.89258      2895.81934
  2922.7      0.0003422   2785.71533      2891.16284
  2913.5      0.0003432   2783.86523      2887.97876
  2911.4      0.0003435   2782.27954      2884.53735
  2924.3      0.0003420   2780.90161      2881.59937
  2916.2      0.0003429   2779.68115      2879.11133
  2916.0      0.0003429   2778.57324      2877.02905
  2921.5      0.0003423   2777.53906      2875.31787
  2904.6      0.0003443   2776.54541      2873.95190
  2907.7      0.0003439   2775.56445      2872.91553
  2898.8      0.0003450   2774.57251      2872.20020
  2900.1      0.0003448   2773.55151      2871.80957
  2902.0      0.0003446   2772.48730      2871.75562
  2896.9      0.0003452   2771.36987      2872.06250
  2901.0      0.0003447   2770.19287      2872.76587
  2896.9      0.0003452   2768.95313      2873.91528
  2914.4      0.0003431   2767.65137      2875.57617
  2899.2      0.0003449   2766.29004      2878.96338
  2904.0      0.0003443   2764.87500      2881.93555
  2903.7      0.0003444   2763.41357      2885.74097
  2917.9      0.0003427   2761.91528      2890.54590
  2905.2      0.0003442   2760.39111      2896.56177
  2907.8      0.0003439   2758.85400      2904.05640
  2918.2      0.0003427   2757.31665      2913.37402
  2927.9      0.0003415   2755.79395      2924.96509
  2933.0      0.0003409   2754.30054      2939.42065
  2941.4      0.0003400   2752.85181      2957.53809
  2946.9      0.0003393   2751.46338      2980.40796
  2950.9      0.0003389   2750.15088      3009.55469
  2973.5      0.0003363   2748.92944      3047.16602
  2985.0      0.0003350   2747.81445      3096.46533
  3026.6      0.0003304   2746.82056      3162.41846
  3092.2      0.0003234   2745.96216      3253.60400
  3208.1      0.0003117   2745.25220      3390.22681
  3529.0      0.0002834   2744.70361      3640.66138
  4226.2      0.0002366   2744.32886      4244.84619
  6047.8      0.0001654   2744.13843      5852.35156
  9571.8      0.0001045   2744.14233      9578.54980
  16443.3     0.0000608   2744.35010      16156.03613
  24682.8     0.0000405   2744.76953      24136.76367
  29491.0     0.0000339   2745.40771      28837.60938
  26478.5     0.0000378   2746.27051      25933.07422
  19093.7     0.0000524   2747.36279      18247.79492
  10838.1     0.0000923   2748.68799      11038.49707
  6415.5      0.0001559   2750.24951      6588.46387
  4374.1      0.0002286   2752.04858      4549.57471
  3539.8      0.0002825   2754.08594      3773.59839
  3256.1      0.0003071   2756.36133      3472.09058
  3121.8      0.0003203   2758.87354      3323.55933
  3066.4      0.0003261   2761.62012      3232.37500
  3046.8      0.0003282   2764.59839      3172.05615
  3034.3      0.0003296   2767.80420      3133.24854
  3062.4      0.0003265   2771.23340      3093.55322
  3056.8      0.0003271   2774.87988      3094.36670
  3143.6      0.0003181   2778.73828      3138.30078
  3309.9      0.0003021   2782.80176      3297.63232
  3714.5      0.0002692   2787.06323      3738.62305
  4679.2      0.0002137   2791.51514      4707.00781
  6098.3      0.0001640   2796.14941      6342.60449
  8249.2      0.0001212   2800.95801      8357.15527
  9548.2      0.0001047   2805.93213      9885.92090
  9482.8      0.0001055   2811.06250      9928.13184
  8051.8      0.0001242   2816.34033      8449.40039
  6279.9      0.0001592   2821.75659      6428.89600
  4728.3      0.0002115   2827.30200      4755.43896
  3820.7      0.0002617   2832.96704      3745.76147
  3347.6      0.0002987   2838.74292      3273.18286
  3134.5      0.0003190   2844.62036      3090.18066
  3047.4      0.0003281   2850.59033      3023.84741
  3001.7      0.0003331   2856.64453      2996.41650
  2986.1      0.0003349   2862.77393      2981.98193
  2979.5      0.0003356   2868.97070      2973.23535
  2981.5      0.0003354   2875.22656      2967.91455
  2970.2      0.0003367   2881.53442      2965.18311
  2988.2      0.0003346   2887.88696      2964.07983
  2982.3      0.0003353   2894.27734      2964.35571
  2981.5      0.0003354   2900.69946      2965.71069
  2993.3      0.0003341   2907.14746      2967.92627
  2986.4      0.0003349   2913.61646      2970.84131
  2996.5      0.0003337   2920.10132      2974.33252
  2996.4      0.0003337   2926.59790      2978.30640
  3000.5      0.0003333   2933.10278      2982.69092
  3000.0      0.0003333   2939.61255      2987.43091
  3011.5      0.0003321   2946.12476      2992.48218
  3016.3      0.0003315   2952.63770      2997.81323
  3022.3      0.0003309   2959.14990      3003.39893
  3027.3      0.0003303   2965.66064      3009.22217
  3037.6      0.0003292   2972.16992      3015.27222
  3041.5      0.0003288   2978.67773      3021.54297
  3045.7      0.0003283   2985.18530      3028.03491
  3061.2      0.0003267   2991.69434      3034.75317
  3060.1      0.0003268   2998.20679      3041.70850
  3067.8      0.0003260   3004.72534      3048.91846
  3075.1      0.0003252   3011.25317      3056.40649
  3074.6      0.0003252   3017.79419      3064.20483
  3095.1      0.0003231   3024.35229      3072.35327
  3094.7      0.0003231   3030.93262      3080.90649
  3110.7      0.0003215   3037.53979      3089.93213
  3115.5      0.0003210   3044.17969      3099.51758
  3117.2      0.0003208   3050.85840      3109.77612
  3137.5      0.0003187   3057.58228      3120.85571
  3141.8      0.0003183   3064.35791      3132.95264
  3152.0      0.0003173   3071.19263      3146.33008
  3171.1      0.0003153   3078.09351      3161.35010
  3182.1      0.0003143   3085.06885      3178.51758
  3191.8      0.0003133   3092.12622      3198.55664
  3223.2      0.0003103   3099.27393      3222.53442
  3246.2      0.0003081   3106.52026      3252.08813
  3279.0      0.0003050   3113.87402      3290.00122
  3351.6      0.0002984   3121.34375      3342.79395
  3489.0      0.0002866   3128.93848      3434.15210
  3827.9      0.0002612   3136.66650      3657.41455
  4474.2      0.0002235   3144.53784      4295.95117
  6092.3      0.0001641   3152.56055      5892.81787
  8689.3      0.0001151   3160.74414      8875.08789
  12199.2     0.0000820   3169.09741      12619.27344
  14405.2     0.0000694   3177.62939      14910.94043
  13502.4     0.0000741   3186.34888      13672.85059
  10038.2     0.0000996   3195.26440      10115.12207
  6852.0      0.0001459   3204.38452      6760.78320
  4884.8      0.0002047   3213.71802      4753.02881
  3995.2      0.0002503   3223.27271      3892.38525
  3643.3      0.0002745   3233.05664      3598.89355
  3512.3      0.0002847   3243.07788      3501.26025
  3463.9      0.0002887   3253.34326      3460.59521
  3452.8      0.0002896   3263.86108      3439.61523
  3453.7      0.0002895   3274.63672      3428.86279
  3461.5      0.0002889   3285.67798      3424.92798
  3455.5      0.0002894   3296.99023      3425.99414
  3470.5      0.0002881   3308.58032      3430.95215
  3482.3      0.0002872   3320.45264      3439.11621
  3496.0      0.0002860   3332.61304      3450.08276
  3518.4      0.0002842   3345.06519      3463.65405
  3540.0      0.0002825   3357.81494      3479.80566
  3557.1      0.0002811   3370.86401      3498.68091
  3582.1      0.0002792   3384.21777      3520.67896
  3602.6      0.0002776   3397.87720      3546.73340
  3620.6      0.0002762   3411.84644      3579.21948
  3663.7      0.0002729   3426.12573      3624.34424
  3715.1      0.0002692   3440.71777      3697.62769
  3811.8      0.0002623   3455.62280      3834.00781
  3970.6      0.0002518   3470.84180      4101.80127
  4307.4      0.0002322   3486.37329      4613.61230
  4994.3      0.0002002   3502.21875      5514.99219
  6288.6      0.0001590   3518.37524      6938.96289
  8590.0      0.0001164   3534.84229      8914.63184
  11367.5     0.0000880   3551.61694      11270.42383
  13812.1     0.0000724   3568.69751      13590.49805
  15196.6     0.0000658   3586.08008      15277.39648
  15316.3     0.0000653   3603.76050      15765.02344
  14454.0     0.0000692   3621.73633      14868.67969
  12758.0     0.0000784   3640.00049      12936.20117
  10860.7     0.0000921   3658.55029      10578.90723
  8852.5      0.0001130   3677.37769      8349.20898
  7169.0      0.0001395   3696.47876      6580.46875
  5924.5      0.0001688   3715.84521      5374.17090
  5009.5      0.0001996   3735.47144      4652.85938
  4537.3      0.0002204   3755.34839      4271.15479
  4240.8      0.0002358   3775.46997      4090.77515
  4115.7      0.0002430   3795.82544      4014.39722
  4063.5      0.0002461   3816.40845      3986.28809
  4035.3      0.0002478   3837.20752      3979.30347
  4033.8      0.0002479   3858.21533      3981.81128
  4035.9      0.0002478   3879.41968      3989.20386
  4044.0      0.0002473   3900.81226      3999.65015
  4057.3      0.0002465   3922.38013      4012.31519
  4067.0      0.0002459   3944.11499      4026.73438
  4087.1      0.0002447   3966.00269      4042.59058
  4101.0      0.0002438   3988.03394      4059.65771
  4119.0      0.0002428   4010.19482      4077.76343
  4134.5      0.0002419   4032.47510      4097.80127
  4150.4      0.0002409   4054.86011      4117.65234
  4165.5      0.0002401   4077.33936      4138.43359
  4189.6      0.0002387   4099.89893      4159.78076
  4209.0      0.0002376   4122.52441      4181.86377
  4226.9      0.0002366   4145.20459      4204.18896
  4263.3      0.0002346   4167.92432      4227.94434
  4281.9      0.0002335   4190.67188      4252.75830
  4306.9      0.0002322   4213.43066      4278.94775
  4335.4      0.0002307   4236.18994      4307.19775
  4364.5      0.0002291   4258.93311      4339.71484
  4414.0      0.0002266   4281.64795      4385.16748
  4497.0      0.0002224   4304.31885      4473.05518
  4663.2      0.0002144   4326.93311      4675.51465
  5023.0      0.0001991   4349.47461      5099.32959
  5619.6      0.0001779   4371.93164      5785.93066
  6368.2      0.0001570   4394.28711      6552.19775
  6843.9      0.0001461   4416.52979      6964.78906
  6659.6      0.0001502   4438.64258      6699.71338
  5946.9      0.0001682   4460.61475      6002.47217
  5311.8      0.0001883   4482.42871      5326.60498
  4909.8      0.0002037   4504.07324      4902.19287
  4719.2      0.0002119   4525.53271      4714.71045
  4667.8      0.0002142   4546.79492      4658.31543
  4651.2      0.0002150   4567.84473      4652.72949
  4660.8      0.0002146   4588.67041      4662.77490
  4672.7      0.0002140   4609.25732      4677.61816
  4693.3      0.0002131   4629.59326      4694.46631
  4718.0      0.0002120   4649.66504      4712.48193
  4726.2      0.0002116   4669.45898      4731.28223
  4757.2      0.0002102   4688.96484      4750.64160
  4772.7      0.0002095   4708.16797      4770.41748
  4798.7      0.0002084   4727.05811      4790.52393
  4813.4      0.0002078   4745.62207      4810.91309
  4830.8      0.0002070   4763.84961      4831.56982
  4858.9      0.0002058   4781.72900      4852.50488
  4875.2      0.0002051   4799.24951      4873.75342
  4898.1      0.0002042   4816.39990      4895.37646
  4921.3      0.0002032   4833.17090      4917.46387
  4949.5      0.0002020   4849.55078      4940.13770
  4961.3      0.0002016   4865.53223      4963.56641
  4983.8      0.0002006   4881.10352      4987.96924
  5005.6      0.0001998   4896.25732      5013.63867
  5021.8      0.0001991   4910.98340      5040.96143
  5052.6      0.0001979   4925.27539      5070.46094
  5067.8      0.0001973   4939.12305      5102.84473
  5108.9      0.0001957   4952.52051      5139.09668
  5134.8      0.0001948   4965.45947      5180.59180
  5170.9      0.0001934   4977.93359      5229.31494
  5219.8      0.0001916   4989.93555      5288.22510
  5292.7      0.0001889   5001.46045      5362.20020
  5416.2      0.0001846   5012.50098      5461.77881
  5664.8      0.0001765   5023.05322      5620.05225
  6168.3      0.0001621   5033.11133      5953.75684
  7245.7      0.0001380   5042.66992      6811.51611
  9600.2      0.0001042   5051.72607      8945.68066
  13546.4     0.0000738   5060.27490      13337.69434
  20773.4     0.0000481   5068.31348      20226.66602
  28214.5     0.0000354   5075.83838      27762.79883
  32596.7     0.0000307   5082.84766      31806.54688
  29975.0     0.0000334   5089.33740      29152.23242
  22350.7     0.0000447   5095.30713      21999.68945
  14429.6     0.0000693   5100.75391      14726.20801
  9485.2      0.0001054   5105.67773      9754.90332
  7043.6      0.0001420   5110.07715      7209.52100
  6062.3      0.0001650   5113.95166      6160.58691
  5627.6      0.0001777   5117.30078      5765.76074
  5471.3      0.0001828   5120.12549      5597.13232
  5389.1      0.0001856   5122.42627      5502.36475
  5363.0      0.0001865   5124.20361      5437.48291
  5339.8      0.0001873   5125.45898      5389.24463
  5320.0      0.0001880   5126.19385      5352.04102
  5316.7      0.0001881   5126.41064      5322.60400
  5300.7      0.0001887   5126.11133      5298.77246
  5294.2      0.0001889   5125.29883      5279.06250
  5281.8      0.0001893   5123.97559      5262.42822
  5269.8      0.0001898   5122.14502      5248.14990
  5267.5      0.0001898   5119.81104      5235.78564
  5263.1      0.0001900   5116.97705      5225.20850
  5266.0      0.0001899   5113.64746      5216.68799
  5259.7      0.0001901   5109.82666      5210.90283
  5269.6      0.0001898   5105.51953      5208.52441
  5280.5      0.0001894   5100.73096      5209.57959
  5294.2      0.0001889   5095.46631      5212.52881
  5311.2      0.0001883   5089.73047      5214.05176
  5302.4      0.0001886   5083.52979      5210.11426
  5297.1      0.0001888   5076.87012      5198.81592
  5289.4      0.0001891   5069.75781      5182.37402
  5254.4      0.0001903   5062.19873      5164.89063
  5240.1      0.0001908   5054.20020      5149.62646
  5201.4      0.0001923   5045.76855      5138.06152
  5193.2      0.0001926   5036.91162      5130.21924
  5176.4      0.0001932   5027.63574      5125.55078
  5170.7      0.0001934   5017.94922      5123.71289
  5171.1      0.0001934   5007.85840      5125.00195
  5177.8      0.0001931   4997.37207      5130.86377
  5189.5      0.0001927   4986.49756      5145.83496
  5247.2      0.0001906   4975.24365      5184.10498
  5352.3      0.0001868   4963.61719      5285.10059
  5629.9      0.0001776   4951.62842      5535.80811
  6082.0      0.0001644   4939.28320      6070.99170
  6944.6      0.0001440   4926.59277      7005.83691
  8218.9      0.0001217   4913.56348      8284.81445
  9491.0      0.0001054   4900.20459      9544.90723
  10360.4     0.0000965   4886.52637      10149.82324
  10072.7     0.0000993   4872.53564      9669.24512
  8850.3      0.0001130   4858.24316      8438.88770
  7359.7      0.0001359   4843.65625      7109.46387
  6204.7      0.0001612   4828.78564      6093.73779
  5562.4      0.0001798   4813.63818      5488.18506
  5258.2      0.0001902   4798.22510      5200.89746
  5190.3      0.0001927   4782.55371      5120.30762
  5286.1      0.0001892   4766.63525      5222.03662
  5600.6      0.0001786   4750.47705      5559.52783
  6111.6      0.0001636   4734.08887      6155.02148
  6829.0      0.0001464   4717.47998      6835.93311
  7223.4      0.0001384   4700.65967      7200.91797
  7022.3      0.0001424   4683.63574      6933.67578
  6349.6      0.0001575   4666.41992      6238.80029
  5627.3      0.0001777   4649.01807      5540.90576
  5164.0      0.0001936   4631.44189      5073.38818
  4920.7      0.0002032   4613.69775      4836.77393
  4803.4      0.0002082   4595.79736      4734.14453
  4754.0      0.0002103   4577.74707      4685.97803
  4719.2      0.0002119   4559.55762      4655.40625
  4694.1      0.0002130   4541.23633      4630.52197
  4672.9      0.0002140   4522.79248      4608.19238
  4653.2      0.0002149   4504.23389      4587.52686
  4629.9      0.0002160   4485.56934      4568.15967
  4618.0      0.0002165   4466.80859      4549.90918
  4598.1      0.0002175   4447.95703      4532.68408
  4584.9      0.0002181   4429.02588      4516.30029
  4576.7      0.0002185   4410.02051      4501.15869
  4571.2      0.0002188   4390.95117      4487.19873
  4555.1      0.0002195   4371.82373      4474.63818
  4540.9      0.0002202   4352.64697      4463.87939
  4533.1      0.0002206   4333.42773      4455.76172
  4525.5      0.0002210   4314.17480      4452.13330
  4531.1      0.0002207   4294.89355      4457.12109
  4539.7      0.0002203   4275.59277      4479.55127
  4561.3      0.0002192   4256.27783      4536.88330
  4632.4      0.0002159   4236.95801      4660.44531
  4756.2      0.0002102   4217.63721      4900.14941
  5032.4      0.0001987   4198.32471      5324.95313
  5621.8      0.0001779   4179.02490      6013.26465
  6708.5      0.0001491   4159.74561      7030.15479
  8681.2      0.0001152   4140.49121      8391.81738
  11202.2     0.0000893   4121.26953      10028.79199
  13649.9     0.0000733   4102.08496      11764.59766
  15270.1     0.0000655   4082.94482      13324.78125
  15719.7     0.0000636   4063.85254      14385.60254
  15318.3     0.0000653   4044.81567      14674.39453
  14227.0     0.0000703   4025.83740      14104.23633
  12910.9     0.0000775   4006.92383      12827.61719
  11234.7     0.0000890   3988.08008      11145.92285
  9536.2      0.0001049   3969.31006      9376.39648
  8040.8      0.0001244   3950.61938      7768.14941
  6784.7      0.0001474   3932.01123      6465.98682
  5813.1      0.0001720   3913.49121      5511.29395
  5132.7      0.0001948   3895.06177      4869.69727
  4659.5      0.0002146   3876.72827      4469.05811
  4362.6      0.0002292   3858.49316      4231.91943
  4207.1      0.0002377   3840.36182      4094.48291
  4100.4      0.0002439   3822.33569      4012.56616
  4033.8      0.0002479   3804.41968      3959.44897
  3995.6      0.0002503   3786.61548      3920.68433
  3959.2      0.0002526   3768.92749      3889.16309
  3924.9      0.0002548   3751.35718      3861.62061
  3903.3      0.0002562   3733.90869      3836.60913
  3877.7      0.0002579   3716.58301      3813.47144
  3851.0      0.0002597   3699.38379      3791.88965
  3828.6      0.0002612   3682.31177      3773.38843
  3803.6      0.0002629   3665.37085      3754.52466
  3786.5      0.0002641   3648.56104      3734.57080
  3771.7      0.0002651   3631.88599      3718.34326
  3750.9      0.0002666   3615.34570      3703.52197
  3746.2      0.0002669   3598.94312      3690.27686
  3725.9      0.0002684   3582.67822      3678.87158
  3717.9      0.0002690   3566.55298      3669.71680
  3709.5      0.0002696   3550.56934      3663.47510
  3710.6      0.0002695   3534.72656      3661.43213
  3736.0      0.0002677   3519.02734      3666.84644
  3769.1      0.0002653   3503.47046      3689.16553
  3876.8      0.0002579   3488.05835      3754.39282
  4084.2      0.0002448   3472.79004      3922.34766
  4465.6      0.0002239   3457.66724      4298.79688
  5123.9      0.0001952   3442.68872      5009.94482
  6129.0      0.0001632   3427.85645      6110.66113
  7314.9      0.0001367   3413.16870      7454.66113
  8393.0      0.0001191   3398.62720      8621.31641
  8744.3      0.0001144   3384.22998      9025.79297
  8083.1      0.0001237   3369.97852      8398.37695
  6729.3      0.0001486   3355.87085      7120.97705
  5451.4      0.0001834   3341.90845      5770.90039
  4444.6      0.0002250   3328.08862      4714.46240
  3893.9      0.0002568   3314.41284      4048.64307
  3623.1      0.0002760   3300.87891      3694.11548
  3488.6      0.0002866   3287.48730      3523.58691
  3422.1      0.0002922   3274.23584      3440.21802
  3389.0      0.0002951   3261.12524      3392.38916
  3359.3      0.0002977   3248.15283      3358.58838
  3341.6      0.0002993   3235.31909      3331.16431
  3322.3      0.0003010   3222.62158      3307.43262
  3308.6      0.0003022   3210.05981      3286.26270
  3291.4      0.0003038   3197.63330      3267.02417
  3272.8      0.0003055   3185.33960      3249.30322
  3264.0      0.0003064   3173.17822      3232.80957
  3251.0      0.0003076   3161.14697      3217.33325
  3242.3      0.0003084   3149.24561      3202.72534
  3224.6      0.0003101   3137.47144      3188.87476
  3212.0      0.0003113   3125.82373      3175.70654
  3201.8      0.0003123   3114.30078      3163.23389
  3184.8      0.0003140   3102.90112      3151.30493
  3174.5      0.0003150   3091.62280      3139.97388
  3164.7      0.0003160   3080.46460      3129.25391
  3144.0      0.0003181   3069.42456      3119.18164
  3144.2      0.0003180   3058.50171      3109.82227
  3138.7      0.0003186   3047.69312      3101.27563
  3116.4      0.0003209   3036.99829      3093.71753
  3113.8      0.0003212   3026.41455      3087.42407
  3110.2      0.0003215   3015.94141      3082.90283
  3106.0      0.0003220   3005.57544      3081.13110
  3112.2      0.0003213   2995.31641      3084.17554
  3133.9      0.0003191   2985.16138      3096.86670
  3180.7      0.0003144   2975.10962      3131.19482
  3270.3      0.0003058   2965.15845      3215.37085
  3464.6      0.0002886   2955.30688      3405.14063
  3792.7      0.0002637   2945.55225      3781.98022
  4344.4      0.0002302   2935.89331      4412.12256
  5134.7      0.0001948   2926.32861      5261.98145
  5992.7      0.0001669   2916.85571      6121.99170
  6604.0      0.0001514   2907.47363      6622.30322
  6604.8      0.0001514   2898.17993      6455.71875
  5969.9      0.0001675   2888.97363      5721.26074
  5015.0      0.0001994   2879.85205      4801.16992
  4146.2      0.0002412   2870.81421      4010.19922
  3572.7      0.0002799   2861.85815      3476.41943
  3231.9      0.0003094   2852.98242      3178.00586
  3065.4      0.0003262   2844.18481      3030.70483
  2987.8      0.0003347   2835.46484      2960.03516
  2932.4      0.0003410   2826.81958      2922.46704
  2907.7      0.0003439   2818.24854      2898.39307
  2889.3      0.0003461   2809.74902      2880.27661
  2879.6      0.0003473   2801.32080      2865.41333
  2865.7      0.0003490   2792.96118      2853.03540
  2864.2      0.0003491   2784.66968      2843.64038
  2863.6      0.0003492   2776.44385      2839.18408
  2864.2      0.0003491   2768.28320      2842.62720
  2882.4      0.0003469   2760.18555      2854.92456
  2916.1      0.0003429   2752.15039      2873.61792
  2935.8      0.0003406   2744.17554      2889.38379
  2933.7      0.0003409   2736.26025      2889.46069
  2895.8      0.0003453   2728.40283      2868.22754
  2857.9      0.0003499   2720.60205      2833.97485
  2814.6      0.000355    2712.85742      2799.27026
  2786.3      0.000359    2705.16675      2771.91309
  2775.9      0.000360    2697.52954      2753.35205
  2806.2      0.000356    2689.94434      2741.25000
  2752.6      0.000363    2682.41040      2732.71191
  2749.0      0.000364    2674.92627      2725.85083
  2740.1      0.000365    2667.49121      2719.81763
  2735.6      0.000366    2660.10376      2714.33203
  2729.7      0.000366    2652.76367      2709.34863
  2727.1      0.000367    2645.46924      2704.90039
  2714.4      0.000368    2638.22046      2701.07031
  2714.2      0.000368    2631.01563      2697.98560
  2718.7      0.000368    2623.85449      2695.90430
  2712.7      0.000369    2616.73560      2695.51538
  2731.8      0.000366    2609.65894      2699.08301
  2748.2      0.000364    2602.62305      2713.49170
  2801.5      0.000357    2595.62769      2755.26587
  2890.8      0.0003459   2588.67188      2852.38989
  3058.8      0.0003269   2581.75537      3031.10400
  3289.5      0.0003040   2574.87695      3283.03735
  3554.8      0.0002813   2568.03662      3535.66650
  3698.6      0.0002704   2561.23315      3666.66333
  3636.4      0.0002750   2554.46680      3604.54199
  3419.1      0.0002925   2547.73608      3427.79736
  3187.7      0.0003137   2541.04126      3277.12109
  3087.6      0.0003239   2534.38159      3248.72534
  3159.3      0.0003165   2527.75659      3373.74048
  3439.8      0.0002907   2521.16602      3642.57666
  3980.7      0.0002512   2514.60913      4033.79834
  4791.0      0.0002087   2508.08594      4523.38525
  5733.1      0.0001744   2501.59570      5079.23926
  6546.9      0.0001527   2495.13843      5654.76416
  7022.4      0.0001424   2488.71338      6188.42920
  7157.8      0.0001397   2482.32080      6610.11719
  7022.2      0.0001424   2475.95972      6854.25049
  6753.8      0.0001481   2469.63062      6879.10303
  6407.5      0.0001561   2463.33252      6684.07031
  5999.5      0.0001667   2457.06592      6310.97168
  5578.7      0.0001793   2450.83008      5829.09570
  5119.1      0.0001953   2444.62524      5319.14209
  4766.0      0.0002098   2438.45044      4868.39209
  4592.8      0.0002177   2432.30640      4583.70557
  4719.4      0.0002119   2426.19238      4627.20361
  5331.5      0.0001876   2420.10864      5264.71973
  6713.2      0.0001490   2414.05444      6874.38428
  9277.5      0.0001078   2408.03027      9818.08691
  13128.7     0.0000762   2402.03564      14122.86133
  17865.5     0.0000560   2396.07080      19105.10742
  22263.4     0.0000449   2390.13501      23244.46680
  24043.5     0.0000416   2384.22852      24640.07227
  22296.9     0.0000448   2378.35156      22449.11719
  17653.8     0.0000566   2372.50366      17845.38867
  12425.8     0.0000805   2366.68506      12753.71094
  8205.7      0.0001219   2360.89502      8546.94141
  5379.0      0.0001859   2355.13428      5725.82422
  3918.2      0.0002552   2349.40210      4128.46484
  3188.0      0.0003137   2343.69897      3333.45190
  2833.6      0.000353    2338.02441      2963.05444
  2672.2      0.000374    2332.37866      2784.78247
  2582.6      0.000387    2326.76147      2686.40161
  2530.5      0.000395    2321.17261      2622.39941
  2504.5      0.000399    2315.61230      2576.73535
  2481.3      0.000403    2310.08057      2545.19775
  2473.4      0.000404    2304.57715      2528.04443
  2473.6      0.000404    2299.10181      2525.22168
  2497.1      0.000400    2293.65479      2531.80249
  2519.6      0.000397    2288.23584      2536.02100
  2527.4      0.000396    2282.84473      2523.63770
  2504.3      0.000399    2277.48193      2489.69141
  2460.5      0.000406    2272.14648      2445.55347
  2411.5      0.000415    2266.83936      2403.78223
  2374.0      0.000421    2261.55957      2371.57471
  2343.2      0.000427    2256.30762      2349.34839
  2332.7      0.000429    2251.08276      2334.03882
  2327.0      0.000430    2245.88525      2322.50122
  2312.2      0.000432    2240.71533      2312.85107
  2311.1      0.000433    2235.57227      2304.27466
  2299.9      0.000435    2230.45654      2296.50293
  2295.5      0.000436    2225.36719      2289.49438
  2288.5      0.000437    2220.30493      2283.31543
  2290.6      0.000437    2215.26904      2278.31421
  2295.3      0.000436    2210.25977      2275.76050
  2301.5      0.000435    2205.27637      2279.31567
  2325.5      0.000430    2200.31934      2298.67749
  2386.3      0.000419    2195.38794      2352.55786
  2477.4      0.000404    2190.48267      2465.07983
  2630.1      0.000380    2185.60254      2648.10645
  2826.4      0.000354    2180.74805      2874.53882
  3004.5      0.0003328   2175.91821      3065.45166
  3071.4      0.0003256   2171.11377      3118.61475
  2978.4      0.0003358   2166.33398      2997.64453
  2770.2      0.000361    2161.57861      2777.66968
  2539.4      0.000394    2156.84741      2561.43384
  2375.9      0.000421    2152.14038      2410.95825
  2291.1      0.000436    2147.45703      2337.75854
  2263.5      0.000442    2142.79736      2323.56104
  2277.4      0.000439    2138.16089      2344.84790
  2305.7      0.000434    2133.54761      2384.00537
  2345.8      0.000426    2128.95679      2429.32642
  2384.4      0.000419    2124.38867      2471.44580
  2409.4      0.000415    2119.84277      2501.63062
  2427.4      0.000412    2115.31909      2512.46948
  2426.6      0.000412    2110.81714      2500.16821
  2412.3      0.000415    2106.33618      2466.31689
  2387.7      0.000419    2101.87671      2417.03857
  2350.2      0.000425    2097.43848      2360.42847
  2311.5      0.000433    2093.02026      2304.50464
  2270.9      0.000440    2088.62256      2256.43457
  2241.3      0.000446    2084.24487      2222.60205
  2229.8      0.000448    2079.88745      2209.39795
  2235.0      0.000447    2075.54883      2222.56396
  2262.2      0.000442    2071.22949      2264.21851
  2307.8      0.000433    2066.92896      2327.89868
  2357.8      0.000424    2062.64771      2395.06348
  2388.1      0.000419    2058.38428      2437.14575
  2385.4      0.000419    2054.13867      2429.06689
  2333.1      0.000429    2049.91113      2371.68335
  2254.6      0.000444    2045.70129      2290.08667
  2185.8      0.000458    2041.50842      2210.71338
  2132.6      0.000469    2037.33240      2149.13281
  2103.1      0.000475    2033.17310      2108.87451
  2088.3      0.000479    2029.03064      2085.70874
  2079.8      0.000481    2024.90393      2073.21606
  2064.9      0.000484    2020.79321      2066.30396
  2062.9      0.000485    2016.69812      2062.05469
  2056.4      0.000486    2012.61853      2059.16284
  2060.6      0.000485    2008.55444      2057.17529
  2056.5      0.000486    2004.50513      2055.75244
  2062.6      0.000485    2000.47046      2055.53784
  2060.4      0.000485    1996.45044      2056.27002
  2062.1      0.000485    1992.44519      2058.26709
  2073.2      0.000482    1988.45374      2061.92212
  2082.3      0.000480    1984.47620      2068.01245
  2108.7      0.000474    1980.51270      2078.57764
  2145.2      0.000466    1976.56311      2097.97803
  2218.5      0.000451    1972.62683      2138.10791
  2334.5      0.000428    1968.70398      2224.23340
  2525.6      0.000396    1964.79431      2401.91333
  2836.1      0.000353    1960.89819      2735.39111
  3286.3      0.0003043   1957.01489      3286.17041
  3915.1      0.0002554   1953.14441      4068.10815
  4701.4      0.0002127   1949.28699      4996.40332
  5473.4      0.0001827   1945.44275      5862.97607
  6004.8      0.0001665   1941.61096      6371.27783
  5993.5      0.0001668   1937.79187      6290.04590
  5452.4      0.0001834   1933.98560      5667.00732
  4619.5      0.0002165   1930.19226      4783.01416
  3784.4      0.0002642   1926.41150      3927.74634
  3157.7      0.0003167   1922.64343      3281.50244
  2802.3      0.000357    1918.88818      2893.42456
  2660.9      0.000376    1915.14587      2710.45337
  2597.8      0.000385    1911.41675      2632.74219
  2542.5      0.000393    1907.70020      2573.03052
  2443.5      0.000409    1903.99683      2501.11182
  2349.5      0.000426    1900.30676      2435.49854
  2270.7      0.000440    1896.63025      2406.22778
  2249.8      0.000444    1892.96692      2433.89380
  2292.2      0.000436    1889.31714      2524.02466
  2427.7      0.000412    1885.68127      2669.58838
  2628.3      0.000380    1882.05969      2853.47607
  2856.3      0.0003501   1878.45203      3049.30542
  3044.4      0.0003285   1874.85876      3222.46729
  3155.0      0.0003170   1871.28015      3334.63672
  3181.4      0.0003143   1867.71667      3354.29395
  3144.5      0.0003180   1864.16809      3271.30615
  3041.7      0.0003288   1860.63501      3103.14868
  2871.6      0.0003482   1857.11755      2885.37061
  2687.8      0.000372    1853.61670      2657.44849
  2508.7      0.000399    1850.13171      2454.14917
  2369.1      0.000422    1846.66333      2301.75122
  2278.8      0.000439    1843.21216      2216.60596
  2275.3      0.000440    1839.77881      2203.29395
  2329.5      0.000429    1836.36279      2251.20142
  2435.5      0.000411    1832.96497      2331.98608
  2506.9      0.000399    1829.58582      2402.59229
  2487.8      0.000402    1826.22571      2418.64307
  2380.4      0.000420    1822.88525      2360.92944
  2224.8      0.000449    1819.56433      2249.61963
  2087.4      0.000479    1816.26379      2122.69360
  1977.0      0.000506    1812.98413      2011.34033
  1924.7      0.000520    1809.72595      1930.40393
  1886.1      0.000530    1806.48926      1879.69629
  1864.1      0.000536    1803.27466      1851.05896
  1854.0      0.000539    1800.08301      1835.36914
  1843.8      0.000542    1796.91479      1826.07886
  1842.1      0.000543    1793.77002      1819.59534
  1833.5      0.000545    1790.64966      1814.30396
  1833.3      0.000545    1787.55408      1809.57654
  1827.0      0.000547    1784.48413      1805.18372
  1814.4      0.000551    1781.43994      1801.03540
  1820.7      0.000549    1778.42212      1797.08398
  1814.3      0.000551    1775.43127      1793.30139
  1813.7      0.000551    1772.46826      1789.66943
  1806.9      0.000553    1769.53333      1786.17651
  1803.4      0.000555    1766.62708      1782.81921
  1801.3      0.000555    1763.75000      1779.60522
  1801.1      0.000555    1760.90308      1776.59619
  1795.4      0.000557    1758.08630      1773.75354
  1796.1      0.000557    1755.30066      1771.18860
  1787.8      0.000559    1752.54651      1769.00928
  1792.8      0.000558    1749.82458      1767.44495
  1786.8      0.000560    1747.13562      1766.53577
  1787.9      0.000559    1744.47974      1766.58972
  1793.3      0.000558    1741.85767      1767.84973
  1792.2      0.000558    1739.27002      1770.52576
  1804.0      0.000554    1736.71777      1772.80176
  1822.1      0.000549    1734.20081      1778.55579
  1841.0      0.000543    1731.71985      1785.58948
  1854.3      0.000539    1729.27563      1793.43506
  1870.9      0.000534    1726.86877      1801.38843
  1871.8      0.000534    1724.49951      1808.56311
  1874.6      0.000533    1722.16846      1813.98108
  1861.6      0.000537    1719.87622      1816.72900
  1855.3      0.000539    1717.62354      1816.16675
  1841.1      0.000543    1715.41028      1812.13269
  1835.3      0.000545    1713.23730      1805.00684
  1817.5      0.000550    1711.10522      1795.61743
  1810.2      0.000552    1709.01428      1784.91284
  1798.5      0.000556    1706.96497      1773.93640
  1791.7      0.000558    1704.95776      1763.59497
  1783.0      0.000561    1702.99304      1754.63379
  1776.7      0.000563    1701.07141      1747.68884
  1776.1      0.000563    1699.19287      1743.56958
  1779.3      0.000562    1697.35815      1744.06213
  1789.6      0.000559    1695.56750      1753.67883
  1812.5      0.000552    1693.82129      1782.45264
  1855.3      0.000539    1692.11987      1848.37500
  1944.9      0.000514    1690.46338      1975.50281
  2096.2      0.000477    1688.85229      2182.91235
  2319.4      0.000431    1687.28687      2464.90918
  2608.7      0.000383    1685.76746      2773.35376
  2858.6      0.0003498   1684.29395      3017.93652
  2947.8      0.0003392   1682.86694      3098.30249
  2823.6      0.000354    1681.48645      2974.61475
  2546.4      0.000393    1680.15271      2706.58862
  2257.9      0.000443    1678.86584      2397.22437
  2033.0      0.000492    1677.62585      2128.54492
  1887.7      0.000530    1676.43311      1938.38757
  1811.9      0.000552    1675.28760      1825.77393
  1785.9      0.000560    1674.18921      1771.24146
  1784.8      0.000560    1673.13831      1757.01062
  1812.9      0.000552    1672.13464      1778.61768
  1853.9      0.000539    1671.17847      1846.52625
  1945.6      0.000514    1670.26941      1976.24866
  2077.6      0.000481    1669.40771      2167.17236
  2248.0      0.000445    1668.59314      2380.80566
  2384.6      0.000419    1667.82581      2538.39795
  2430.9      0.000411    1667.10522      2557.42603
  2351.1      0.000425    1666.43164      2427.02002
  2175.9      0.000460    1665.80457      2221.52783
  2012.5      0.000497    1665.22388      2027.74207
  1898.2      0.000527    1664.68958      1897.37024
  1846.1      0.000542    1664.20105      1841.48804
  1834.1      0.000545    1663.75830      1846.93591
  1864.4      0.000536    1663.36096      1894.16846
  1921.3      0.000520    1663.00867      1964.77063
  1987.9      0.000503    1662.70105      2041.84180
  2079.5      0.000481    1662.43774      2111.81787
  2161.7      0.000463    1662.21838      2174.38403
  2263.4      0.000442    1662.04260      2257.60547
  2408.4      0.000415    1661.90979      2414.84521
  2652.9      0.000377    1661.81958      2692.23193
  2991.1      0.0003343   1661.77148      3086.76929
  3404.8      0.0002937   1661.76489      3518.22681
  3768.0      0.0002654   1661.79932      3835.65845
  3850.6      0.0002597   1661.87415      3881.91968
  3627.8      0.0002756   1661.98889      3618.62671
  3142.8      0.0003182   1662.14294      3163.42554
  2643.1      0.000378    1662.33545      2678.08130
  2233.3      0.000448    1662.56592      2277.44507
  1975.3      0.000506    1662.83362      2004.86316
  1836.1      0.000545    1663.13782      1847.37671
  1772.4      0.000564    1663.47778      1767.86755
  1733.0      0.000577    1663.85291      1731.25879
  1725.8      0.000579    1664.26233      1714.63354
  1717.0      0.000582    1664.70520      1706.39380
  1716.7      0.000582    1665.18066      1701.73438
  1713.5      0.000584    1665.68811      1699.09778
  1715.6      0.000583    1666.22656      1698.50500
  1717.2      0.000582    1666.79504      1701.18677
  1722.0      0.000581    1667.39282      1709.65247
  1732.2      0.000577    1668.01904      1727.20618
  1762.5      0.000567    1668.67273      1756.22400
  1800.3      0.000555    1669.35291      1794.73743
  1845.1      0.000542    1670.05859      1834.84424
  1870.6      0.000535    1670.78882      1863.16553
  1883.4      0.000531    1671.54285      1866.95349
  1849.2      0.000541    1672.31946      1844.31055
  1810.6      0.000552    1673.11768      1806.09277
  1762.9      0.000567    1673.93665      1766.31335
  1740.8      0.000574    1674.77515      1734.54956
  1720.4      0.000581    1675.63232      1714.00037
  1718.9      0.000582    1676.50696      1703.06763
  1716.2      0.000583    1677.39819      1698.38818
  1719.7      0.000582    1678.30481      1697.03333
  1710.6      0.000585    1679.22571      1697.22778
  1712.2      0.000584    1680.15991      1698.14575
  1711.9      0.000584    1681.10645      1699.49231
  1713.1      0.000584    1682.06409      1701.36609
  1722.1      0.000581    1683.03174      1703.50354
  1724.3      0.000580    1684.00842      1706.20337
  1719.9      0.000581    1684.99292      1709.51978
  1730.3      0.000578    1685.98413      1713.70642
  1727.4      0.000579    1686.98120      1719.15112
  1735.2      0.000576    1687.98267      1726.09448
  1739.5      0.000575    1688.98767      1735.28052
  1756.2      0.000569    1689.99500      1747.72083
  1767.4      0.000566    1691.00378      1765.01343
  1799.1      0.000556    1692.01270      1789.62622
  1829.6      0.000547    1693.02063      1825.36523
  1880.7      0.000532    1694.02673      1877.62976
  1936.9      0.000516    1695.02979      1953.29993
  2027.2      0.000493    1696.02881      2059.22607
  2155.1      0.000464    1697.02246      2198.98218
  2347.7      0.000426    1698.01001      2368.65869
  2561.8      0.000390    1698.99036      2553.11035
  2779.6      0.000360    1699.96240      2727.48145
  2925.1      0.0003419   1700.92493      2863.61938
  2971.7      0.0003365   1701.87732      2944.61182
  2928.9      0.0003414   1702.81836      2973.58643
  2868.8      0.0003486   1703.74707      2967.30078
  2823.3      0.000354    1704.66235      2947.66675
  2824.1      0.000354    1705.56335      2934.47925
  2867.9      0.0003487   1706.44922      2937.50049
  2946.6      0.0003394   1707.31897      2951.37915
  2993.7      0.0003340   1708.17163      2955.92065
  2972.2      0.0003364   1709.00610      2922.32813
  2848.4      0.000351    1709.82190      2827.37305
  2661.7      0.000376    1710.61792      2670.95239
  2448.6      0.000408    1711.39343      2477.69189
  2248.3      0.000445    1712.14734      2280.71533
  2083.6      0.000480    1712.87915      2107.35522
  1974.6      0.000506    1713.58801      1972.89490
  1898.5      0.000527    1714.27307      1880.12512
  1862.2      0.000537    1714.93347      1822.88708
  1851.2      0.000540    1715.56873      1791.14319
  1846.2      0.000542    1716.17798      1775.11304
  1835.3      0.000545    1716.76062      1767.41589
  1829.6      0.000547    1717.31592      1763.57373
  1818.0      0.000550    1717.84338      1761.58875
  1811.3      0.000552    1718.34229      1761.08789
  1813.2      0.000551    1718.81201      1762.98865
  1823.5      0.000548    1719.25208      1770.27747
  1848.0      0.000541    1719.66199      1790.46094
  1908.5      0.000524    1720.04102      1839.13086
  1991.3      0.000502    1720.38904      1941.25720
  2143.2      0.000467    1720.70520      2123.63135
  2362.8      0.000423    1720.98938      2394.36890
  2651.1      0.000377    1721.24109      2717.60693
  2932.3      0.0003410   1721.45996      3003.76563
  3107.5      0.0003218   1721.64551      3135.23608
  3052.9      0.0003276   1721.79749      3043.44434
  2795.4      0.000358    1721.91565      2777.46899
  2453.0      0.000408    1721.99976      2453.15405
  2163.8      0.000462    1722.04956      2168.62988
  1959.4      0.000510    1722.06470      1969.87732
  1855.4      0.000539    1722.04517      1855.32471
  1802.6      0.000555    1721.99072      1800.11536
  1786.5      0.000560    1721.90125      1778.93945
  1782.5      0.000561    1721.77661      1776.45251
  1790.9      0.000558    1721.61682      1787.53442
  1804.1      0.000554    1721.42188      1813.49939
  1840.4      0.000543    1721.19165      1857.50281
  1875.8      0.000533    1720.92615      1919.83691
  1937.7      0.000516    1720.62537      1993.89771
  1995.3      0.000501    1720.28955      2064.63818
  2048.5      0.000488    1719.91870      2111.27148
  2059.4      0.000486    1719.51294      2116.75171
  2047.7      0.000488    1719.07227      2081.29199
  1994.4      0.000501    1718.59717      2022.18335
  1955.3      0.000511    1718.08752      1961.73730
  1923.2      0.000520    1717.54382      1915.75549
  1922.9      0.000520    1716.96619      1890.99451
  1948.6      0.000513    1716.35474      1885.28589
  1981.1      0.000505    1715.71008      1890.39661
  1990.7      0.000502    1715.03235      1895.92529
  1982.0      0.000505    1714.32214      1893.32849
  1942.0      0.000515    1713.57947      1880.14099
  1908.7      0.000524    1712.80481      1862.02832
  1869.5      0.000535    1711.99878      1851.36072
  1865.9      0.000536    1711.16174      1865.08411
  1888.9      0.000529    1710.29407      1921.13000
  1958.0      0.000511    1709.39636      2030.04871
  2063.0      0.000485    1708.46899      2182.74805
  2199.5      0.000455    1707.51257      2342.40845
  2293.9      0.000436    1706.52771      2450.28320
  2328.4      0.000429    1705.51477      2453.54468
  2241.4      0.000446    1704.47449      2348.36987
  2113.2      0.000473    1703.40759      2182.99170
  1956.4      0.000511    1702.31445      2015.51660
  1852.7      0.000540    1701.19568      1883.87170
  1776.3      0.000563    1700.05225      1798.84863
  1746.0      0.000573    1698.88452      1752.20679
  1715.2      0.000583    1697.69324      1729.54736
  1716.6      0.000583    1696.47913      1719.02197
  1696.9      0.000589    1695.24292      1713.69006
  1708.2      0.000585    1693.98547      1710.40137
  1691.5      0.000591    1692.70728      1707.85852
  1708.3      0.000585    1691.40906      1705.74316
  1691.3      0.000591    1690.09180      1703.82312
  1693.2      0.000591    1688.75610      1702.10828
  1695.3      0.000590    1687.40283      1700.59167
  1702.1      0.000587    1686.03259      1699.28320
  1698.9      0.000589    1684.64636      1698.19104
  1709.2      0.000585    1683.24500      1697.30371
  1705.3      0.000586    1681.82910      1696.55432
  1715.1      0.000583    1680.39954      1695.90466
  1713.6      0.000584    1678.95715      1695.21423
  1714.6      0.000583    1677.50269      1694.36450
  1713.0      0.000584    1676.03723      1693.30237
  1707.9      0.000586    1674.56128      1692.06836
  1699.4      0.000588    1673.07568      1690.75562
  1690.6      0.000591    1671.58142      1689.65906
  1689.9      0.000592    1670.07947      1688.44128
  1682.7      0.000594    1668.57019      1687.33887
  1682.2      0.000594    1667.05469      1686.37549
  1682.8      0.000594    1665.53369      1685.56885
  1690.7      0.000591    1664.00842      1684.95154
  1678.8      0.000596    1662.47900      1684.57764
  1689.6      0.000592    1660.94678      1684.54871
  1690.5      0.000592    1659.41223      1685.06531
  1698.8      0.000589    1657.87646      1686.56885
  1703.5      0.000587    1656.34009      1690.05005
  1725.2      0.000580    1654.80383      1697.65356
  1734.0      0.000577    1653.26855      1713.62671
  1778.0      0.000562    1651.73511      1745.43091
  1822.5      0.000549    1650.20422      1804.29041
  1911.8      0.000523    1648.67664      1903.69446
  2011.1      0.000497    1647.15295      2054.27344
  2162.9      0.000462    1645.63403      2254.84668
  2355.0      0.000425    1644.12073      2483.46924
  2576.7      0.000388    1642.61353      2694.23901
  2721.4      0.000367    1641.11316      2825.95386
  2783.7      0.000359    1639.62036      2829.47412
  2682.9      0.000373    1638.13599      2704.29224
  2514.5      0.000398    1636.66040      2498.37720
  2275.6      0.000439    1635.19434      2272.07056
  2084.1      0.000480    1633.73840      2071.09106
  1924.3      0.000520    1632.29346      1918.08667
  1834.0      0.000545    1630.85974      1815.77246
  1767.3      0.000566    1629.43811      1755.34900
  1739.8      0.000575    1628.02893      1724.72534
  1730.5      0.000578    1626.63306      1713.65649
  1734.3      0.000577    1625.25061      1715.75769
  1754.6      0.000570    1623.88232      1728.67944
  1778.9      0.000562    1622.52856      1753.70056
  1828.9      0.000547    1621.19019      1795.16089
  1890.8      0.000529    1619.86731      1859.54919
  1992.2      0.000502    1618.56030      1953.63037
  2131.7      0.000469    1617.26978      2081.27588
  2309.9      0.000433    1615.99622      2239.58398
  2502.8      0.000400    1614.73999      2415.82495
  2715.2      0.000368    1613.50110      2586.88379
  2857.3      0.0003500   1612.28027      2722.51904
  2931.7      0.0003411   1611.07764      2794.75903
  2899.1      0.0003449   1609.89368      2793.86084
  2805.4      0.000356    1608.72864      2734.78076
  2669.6      0.000375    1607.58252      2644.82739
  2564.0      0.000390    1606.45593      2549.24561
  2461.6      0.000406    1605.34888      2466.37256
  2422.7      0.000413    1604.26160      2410.89355
  2403.1      0.000416    1603.19434      2402.23877
  2450.0      0.000408    1602.14722      2470.27954
  2565.9      0.000390    1601.12048      2650.09326
  2802.7      0.000357    1600.11401      2965.30908
  3197.8      0.0003127   1599.12805      3404.62354
  3773.9      0.0002650   1598.16272      3902.83423
  4346.5      0.0002301   1597.21826      4340.82568
  4732.5      0.0002113   1596.29431      4574.75049
  4674.8      0.0002139   1595.39111      4503.44189
  4238.0      0.0002360   1594.50854      4142.14014
  3565.7      0.0002805   1593.64697      3610.40625
  2951.8      0.0003388   1592.80591      3052.47852
  2479.1      0.000403    1591.98547      2578.59424
  2182.5      0.000458    1591.18567      2241.33569
  2014.1      0.000497    1590.40637      2039.10669
  1929.0      0.000518    1589.64746      1935.37256
  1897.4      0.000527    1588.90881      1882.66248
  1860.2      0.000538    1588.19031      1842.52649
  1825.9      0.000548    1587.49170      1797.98145
  1775.8      0.000563    1586.81299      1750.62329
  1739.4      0.000575    1586.15381      1708.56079
  1711.5      0.000584    1585.51404      1678.51270
  1701.5      0.000588    1584.89343      1663.35632
  1689.1      0.000592    1584.29175      1663.04749
  1704.9      0.000587    1583.70886      1676.14673
  1709.0      0.000585    1583.14429      1699.95410
  1735.6      0.000576    1582.59790      1729.51819
  1755.2      0.000570    1582.06946      1757.15027
  1772.9      0.000564    1581.55859      1773.92700
  1770.7      0.000565    1581.06482      1774.25037
  1771.8      0.000564    1580.58813      1760.67419
  1752.0      0.000571    1580.12793      1742.15930
  1730.3      0.000578    1579.68396      1728.56433
  1735.5      0.000576    1579.25586      1727.67993
  1739.6      0.000575    1578.84338      1745.10608
  1774.6      0.000564    1578.44592      1785.99841
  1820.2      0.000549    1578.06323      1857.35803
  1900.9      0.000526    1577.69482      1969.19580
  2012.2      0.000497    1577.34045      2133.36084
  2186.6      0.000457    1576.99963      2359.65088
  2440.4      0.000410    1576.67188      2649.80591
  2829.4      0.000353    1576.35681      2991.21484
  3279.8      0.0003049   1576.05396      3353.02026
  3704.8      0.0002699   1575.76306      3686.97217
  3972.9      0.0002517   1575.48352      3934.24316
  4047.2      0.0002471   1575.21484      4039.74463
  3888.3      0.0002572   1574.95679      3974.26563
  3624.4      0.0002759   1574.70874      3751.33301
  3257.1      0.0003070   1574.47034      3420.21191
  2894.3      0.0003455   1574.24097      3043.03418
  2554.9      0.000391    1574.02051      2675.87622
  2286.8      0.000437    1573.80811      2358.75000
  2083.5      0.000480    1573.60364      2112.47705
  1940.6      0.000515    1573.40649      1940.91907
  1859.4      0.000538    1573.21619      1836.45154
  1815.9      0.000551    1573.03235      1785.73535
  1798.4      0.000556    1572.85461      1773.89368
  1811.9      0.000552    1572.68225      1786.36670
  1834.3      0.000545    1572.51514      1809.35889
  1849.2      0.000541    1572.35266      1829.98889
  1861.1      0.000537    1572.19434      1837.46545
  1839.8      0.000544    1572.03979      1826.19348
  1805.2      0.000554    1571.88867      1798.21509
  1763.5      0.000567    1571.74060      1761.06946
  1720.0      0.000581    1571.59497      1723.65588
  1688.4      0.000592    1571.45142      1693.69409
  1670.4      0.000599    1571.30969      1676.56287
  1666.5      0.000600    1571.16919      1674.59912
  1671.5      0.000598    1571.02966      1686.59900
  1691.7      0.000591    1570.89063      1707.66394
  1710.0      0.000585    1570.75171      1729.76746
  1727.6      0.000579    1570.61279      1743.85571
  1720.2      0.000581    1570.47314      1743.69275
  1711.5      0.000584    1570.33264      1730.06567
  1687.2      0.000593    1570.19092      1709.76135
  1669.7      0.000599    1570.04761      1690.88428
  1661.3      0.000602    1569.90247      1679.86572
  1671.9      0.000598    1569.75513      1680.76184
  1682.3      0.000594    1569.60522      1696.00830
  1726.5      0.000579    1569.45264      1727.49597
  1768.9      0.000565    1569.29675      1776.79358
  1841.0      0.000543    1569.13782      1843.59619
  1904.8      0.000525    1568.97510      1923.68518
  1989.9      0.000503    1568.80859      2007.01379
  2063.1      0.000485    1568.63806      2077.93018
  2117.5      0.000472    1568.46326      2118.31152
  2118.5      0.000472    1568.28381      2115.07617
  2076.9      0.000481    1568.09985      2069.10376
  2002.7      0.000499    1567.91089      1994.90234
  1912.2      0.000523    1567.71692      1911.25293
  1831.2      0.000546    1567.51770      1833.64490
  1766.2      0.000566    1567.31311      1770.95251
  1726.9      0.000579    1567.10303      1725.18408
  1693.9      0.000590    1566.88733      1693.41846
  1680.7      0.000595    1566.66589      1671.59509
  1660.1      0.000602    1566.43848      1656.66760
  1654.5      0.000604    1566.20520      1648.39758
  1641.9      0.000609    1565.96594      1648.37744
  1651.5      0.000606    1565.72058      1658.15601
  1656.4      0.000604    1565.46912      1677.04395
  1673.8      0.000597    1565.21143      1700.58472
  1698.5      0.000589    1564.94751      1720.78381
  1708.4      0.000585    1564.67737      1728.85999
  1705.7      0.000586    1564.40112      1720.73120
  1694.4      0.000590    1564.11853      1700.47266
  1671.1      0.000598    1563.82971      1676.53088
  1651.3      0.000606    1563.53479      1656.47058
  1648.6      0.000607    1563.23364      1644.63794
  1652.2      0.000605    1562.92639      1642.27637
  1669.4      0.000599    1562.61304      1649.23035
  1693.5      0.000590    1562.29382      1666.07251
  1739.4      0.000575    1561.96863      1695.84912
  1798.7      0.000556    1561.63770      1745.19531
  1881.1      0.000532    1561.30103      1824.71057
  1998.6      0.000500    1560.95862      1948.07532
  2156.5      0.000464    1560.61084      2129.16772
  2366.5      0.000423    1560.25769      2376.86523
  2634.8      0.000380    1559.89929      2688.53516
  2976.7      0.0003359   1559.53577      3044.56567
  3342.2      0.0002992   1559.16736      3406.62280
  3715.0      0.0002692   1558.79407      3721.66895
  3970.2      0.0002519   1558.41614      3933.77832
  4095.4      0.0002442   1558.03369      4008.06372
  4029.9      0.0002481   1557.64709      3953.77710
  3860.8      0.0002590   1557.25623      3818.22119
  3661.6      0.0002731   1556.86157      3656.84814
  3472.9      0.0002879   1556.46313      3508.74268
  3342.2      0.0002992   1556.06116      3387.64038
  3233.5      0.0003093   1555.65588      3283.10156
  3120.3      0.0003205   1555.24731      3171.13232
  2976.2      0.0003360   1554.83594      3031.65625
  2806.6      0.000356    1554.42188      2861.41992
  2623.3      0.000381    1554.00537      2672.60303
  2438.9      0.000410    1553.58655      2483.91821
  2275.7      0.000439    1553.16565      2313.24219
  2148.8      0.000465    1552.74292      2173.35278
  2054.6      0.000487    1552.31860      2070.36499
  1991.6      0.000502    1551.89294      2004.40979
  1954.3      0.000512    1551.46619      1971.24146
  1932.4      0.000517    1551.03845      1963.56396
  1939.7      0.000516    1550.61023      1971.91589
  1958.0      0.000511    1550.18140      1985.12366
  1968.9      0.000508    1549.75232      1991.23645
  1964.9      0.000509    1549.32336      1979.88269
  1951.1      0.000513    1548.89465      1946.38708
  1897.8      0.000527    1548.46643      1894.12659
  1841.6      0.000543    1548.03882      1831.76208
  1781.2      0.000561    1547.61218      1768.66553
  1721.9      0.000581    1547.18677      1712.12817
  1667.3      0.000600    1546.76270      1666.34375
  1634.3      0.000612    1546.34021      1632.42444
  1606.9      0.000622    1545.91956      1609.20593
  1591.4      0.000628    1545.50098      1594.37244
  1574.1      0.000635    1545.08447      1585.46545
  1577.4      0.000634    1544.67053      1580.37476
  1572.8      0.000636    1544.25916      1577.70447
  1568.2      0.000638    1543.85083      1576.62549
  1569.8      0.000637    1543.44531      1576.78906
  1572.8      0.000636    1543.04309      1578.21252
  1579.1      0.000633    1542.64429      1581.19983
  1580.3      0.000633    1542.24915      1586.24036
  1591.1      0.000629    1541.85767      1593.89111
  1595.1      0.000627    1541.47009      1604.27600
  1611.6      0.000621    1541.08667      1617.08252
  1625.0      0.000615    1540.70740      1631.09766
  1642.4      0.000609    1540.33264      1644.24573
  1657.9      0.000603    1539.96240      1653.91443
  1659.5      0.000603    1539.59680      1657.77905
  1668.5      0.000599    1539.23608      1655.10583
  1665.9      0.000600    1538.88025      1647.40601
  1666.4      0.000600    1538.52954      1637.68384
  1664.6      0.000601    1538.18396      1629.51062
  1668.3      0.000599    1537.84375      1626.60291
  1683.3      0.000594    1537.50879      1633.42102
  1719.6      0.000582    1537.17944      1655.72827
  1769.5      0.000565    1536.85559      1701.24890
  1841.6      0.000543    1536.53748      1779.37024
  1943.6      0.000515    1536.22498      1898.89990
  2065.4      0.000484    1535.91833      2063.42700
  2229.5      0.000449    1535.61743      2265.26465
  2408.1      0.000415    1535.32263      2480.76001
  2592.3      0.000386    1535.03369      2670.43457
  2709.3      0.000369    1534.75073      2786.93945
  2723.6      0.000367    1534.47375      2794.00122
  2628.5      0.000380    1534.20288      2689.90356
  2445.7      0.000409    1533.93823      2508.44238
  2229.3      0.000449    1533.67957      2296.63159
  2031.9      0.000492    1533.42688      2095.06055
  1877.4      0.000533    1533.18054      1929.16431
  1767.2      0.000566    1532.94019      1808.43762
  1699.4      0.000588    1532.70593      1730.34131
  1658.7      0.000603    1532.47778      1685.81421
  1641.8      0.000609    1532.25574      1664.02747
  1633.0      0.000612    1532.03967      1655.59338
  1627.5      0.000614    1531.82959      1654.43237
  1636.3      0.000611    1531.62549      1658.19250
  1636.7      0.000611    1531.42737      1666.92383
  1668.3      0.000599    1531.23511      1681.42725
  1694.4      0.000590    1531.04883      1702.04846
  1750.3      0.000571    1530.86816      1728.26245
  1791.7      0.000558    1530.69324      1758.44861
  1834.7      0.000545    1530.52405      1790.09851
  1863.4      0.000537    1530.36035      1820.12854
  1869.3      0.000535    1530.20227      1845.22168
  1867.8      0.000535    1530.04956      1862.24536
  1850.3      0.000540    1529.90234      1868.75854
  1838.3      0.000544    1529.76025      1863.57031
  1818.8      0.000550    1529.62341      1847.16528
  1797.0      0.000556    1529.49170      1821.51147
  1771.0      0.000565    1529.36511      1789.45410
  1739.1      0.000575    1529.24329      1754.05225
  1708.4      0.000585    1529.12646      1718.11499
  1679.4      0.000595    1529.01416      1683.91370
  1659.0      0.000603    1528.90674      1653.05334
  1630.4      0.000613    1528.80371      1626.45728
  1615.3      0.000619    1528.70508      1604.45532
  1593.7      0.000627    1528.61096      1586.92212
  1586.2      0.000630    1528.52100      1573.42920
  1573.6      0.000635    1528.43506      1563.36011
  1569.4      0.000637    1528.35327      1556.08337
  1562.4      0.000640    1528.27539      1550.97949
  1560.8      0.000641    1528.20129      1547.51001
  1557.5      0.000642    1528.13098      1545.23804
  1557.7      0.000642    1528.06421      1543.82898
  1560.1      0.000641    1528.00085      1543.04712
  1555.9      0.000643    1527.94104      1542.74548
  1562.7      0.000640    1527.88440      1542.85010
  1564.6      0.000639    1527.83105      1543.35840
  1566.5      0.000638    1527.78064      1544.33032
  1566.1      0.000639    1527.73328      1545.90344
  1567.2      0.000638    1527.68884      1548.37231
  1577.5      0.000634    1527.64722      1551.87280
  1578.4      0.000634    1527.60815      1556.86206
  1588.3      0.000630    1527.57178      1563.77771
  1596.4      0.000626    1527.53784      1573.08350
  1623.3      0.000616    1527.50635      1585.24683
  1648.7      0.000607    1527.47717      1600.71497
  1671.4      0.000598    1527.45007      1619.93433
  1715.9      0.000583    1527.42529      1643.36401
  1764.2      0.000567    1527.40247      1671.47327
  1805.9      0.000554    1527.38159      1704.66211
  1838.4      0.000544    1527.36267      1743.06238
  1876.8      0.000533    1527.34558      1786.44958
  1906.8      0.000524    1527.33008      1834.82300
  1939.5      0.000516    1527.31641      1889.84863
  1982.2      0.000505    1527.30420      1956.11426
  2022.7      0.000494    1527.29358      2040.49963
  2089.6      0.000479    1527.28430      2148.51758
  2177.7      0.000459    1527.27649      2277.33301
  2303.5      0.000434    1527.27002      2408.27002
  2424.8      0.000412    1527.26477      2506.17090
  2504.6      0.000399    1527.26074      2531.03589
  2464.3      0.000406    1527.25793      2462.96729
  2327.9      0.000430    1527.25623      2321.13354
  2139.7      0.000467    1527.25549      2150.14722
  1962.4      0.000510    1527.25586      1993.15625
  1839.0      0.000544    1527.25720      1875.64526
  1771.8      0.000564    1527.25940      1801.36902
  1746.5      0.000573    1527.26245      1757.88440
  1721.7      0.000581    1527.26636      1727.42822
  1702.4      0.000587    1527.27112      1697.62744
  1683.6      0.000594    1527.27649      1665.39136
  1663.4      0.000601    1527.28271      1633.72449
  1640.5      0.000610    1527.28967      1606.69897
  1627.0      0.000615    1527.29724      1587.08154
  1613.4      0.000620    1527.30542      1575.27026
  1612.3      0.000620    1527.31421      1570.21008
  1606.4      0.000623    1527.32373      1570.25659
  1611.0      0.000621    1527.33362      1574.00098
  1614.6      0.000619    1527.34412      1580.68811
  1617.1      0.000618    1527.35522      1589.89087
  1618.8      0.000618    1527.36670      1601.72156
  1634.1      0.000612    1527.37866      1616.43799
  1654.2      0.000605    1527.39099      1634.43298
  1672.0      0.000598    1527.40393      1656.16296
  1712.1      0.000584    1527.41711      1682.17212
  1743.1      0.000574    1527.43079      1712.96301
  1795.8      0.000557    1527.44470      1748.75635
  1843.3      0.000542    1527.45911      1789.01172
  1897.0      0.000527    1527.47375      1831.99072
  1954.2      0.000512    1527.48865      1874.43677
  2000.5      0.000500    1527.50391      1911.81738
  2044.4      0.000489    1527.51941      1939.35632
  2074.6      0.000482    1527.53516      1953.65979
  2081.2      0.000480    1527.55115      1955.01270
  2069.5      0.000483    1527.56738      1948.79175
  2063.5      0.000485    1527.58362      1944.51294
  2072.5      0.000483    1527.60010      1953.75476
  2099.1      0.000476    1527.61670      1988.27295
  2163.6      0.000462    1527.63342      2057.96436
  2241.1      0.000446    1527.65027      2168.24194
  2368.0      0.000422    1527.66711      2317.04858
  2517.1      0.000397    1527.68396      2492.16455
  2689.5      0.000372    1527.70081      2670.21826
  2862.6      0.0003493   1527.71753      2818.70825
  2961.5      0.0003377   1527.73425      2902.44092
  2993.1      0.0003341   1527.75085      2896.20020
  2899.9      0.0003448   1527.76733      2798.79077
  2738.6      0.000365    1527.78345      2633.82178
  2527.0      0.000396    1527.79956      2436.27100
  2315.2      0.000432    1527.81531      2239.10107
  2133.4      0.000469    1527.83069      2066.00830
  1993.2      0.000502    1527.84583      1929.10742
  1895.1      0.000528    1527.86060      1829.94885
  1831.3      0.000546    1527.87488      1762.88306
  1790.9      0.000558    1527.88867      1718.92419
  1767.4      0.000566    1527.90198      1689.87097
  1742.3      0.000574    1527.91467      1670.18628
  1734.7      0.000576    1527.92676      1657.48523
  1736.2      0.000576    1527.93823      1651.32690
  1741.5      0.000574    1527.94885      1651.98645
  1759.4      0.000568    1527.95886      1659.57275
  1785.6      0.000560    1527.96802      1673.48755
  1813.4      0.000551    1527.97620      1692.28723
  1839.9      0.000544    1527.98352      1713.94189
  1866.0      0.000536    1527.98987      1736.50513
  1894.7      0.000528    1527.99524      1759.16760
  1912.9      0.000523    1527.99939      1783.54028
  1935.0      0.000517    1528.00256      1814.63855
  1952.0      0.000512    1528.00452      1859.97864
  1990.7      0.000502    1528.00513      1925.70471
  2037.6      0.000491    1528.00452      2011.19702
  2107.4      0.000475    1528.00256      2105.54370
  2184.3      0.000458    1527.99927      2188.63379
  2226.7      0.000449    1527.99451      2238.22266
  2246.6      0.000445    1527.98816      2243.41357
  2219.4      0.000451    1527.98047      2214.15698
  2172.9      0.000460    1527.97107      2172.95557
  2143.9      0.000466    1527.96008      2139.68774
  2134.5      0.000468    1527.94751      2122.78931
  2146.3      0.000466    1527.93323      2117.63501
  2153.8      0.000464    1527.91711      2110.81177
  2150.6      0.000465    1527.89929      2088.38721
  2104.0      0.000475    1527.87976      2043.69434
  2045.1      0.000489    1527.85828      1979.45081
  1976.8      0.000506    1527.83508      1904.17822
  1901.0      0.000526    1527.80994      1827.73486
  1829.7      0.000547    1527.78296      1758.44141
  1781.1      0.000561    1527.75403      1701.74597
  1741.7      0.000574    1527.72327      1659.99255
  1716.7      0.000583    1527.69055      1633.15613
  1699.5      0.000588    1527.65601      1619.92920
  1696.7      0.000589    1527.61938      1618.85461
  1701.3      0.000588    1527.58093      1629.10449
  1715.2      0.000583    1527.54065      1650.75378
  1740.3      0.000575    1527.49841      1684.61487
  1775.0      0.000563    1527.45422      1731.08191
  1838.9      0.000544    1527.40833      1789.80579
  1901.0      0.000526    1527.36060      1858.31372
  1995.3      0.000501    1527.31104      1931.56360
  2083.0      0.000480    1527.25964      2002.00781
  2145.4      0.000466    1527.20667      2060.58862
  2188.8      0.000457    1527.15198      2098.67456
  2194.2      0.000456    1527.09570      2111.06104
  2175.1      0.000460    1527.03784      2098.41479
  2130.9      0.000469    1526.97852      2066.73730
  2084.5      0.000480    1526.91772      2024.29199
  2049.5      0.000488    1526.85559      1978.73010
  2005.4      0.000499    1526.79224      1935.48950
  1985.8      0.000504    1526.72766      1897.36084
  1967.5      0.000508    1526.66187      1865.00720
  1948.6      0.000513    1526.59509      1838.02527
  1941.2      0.000515    1526.52747      1815.67310
  1927.7      0.000519    1526.45886      1796.90674
  1924.7      0.000520    1526.38965      1780.67664
  1910.3      0.000523    1526.31970      1765.94226
  1904.8      0.000525    1526.24927      1751.95776
  1892.7      0.000528    1526.17847      1738.67639
  1872.9      0.000534    1526.10730      1727.10120
  1854.8      0.000539    1526.03589      1719.24133
  1837.1      0.000544    1525.96448      1717.42932
  1820.9      0.000549    1525.89319      1723.43042
  1824.4      0.000548    1525.82202      1737.65881
  1818.4      0.000550    1525.75122      1758.73596
  1828.6      0.000547    1525.68079      1783.62720
  1836.4      0.000545    1525.61096      1808.40125
  1851.1      0.000540    1525.54187      1829.86255
  1866.3      0.000536    1525.47351      1847.75586
  1886.7      0.000530    1525.40613      1865.67627
  1952.3      0.000512    1525.33997      1889.74170
  2026.2      0.000494    1525.27490      1926.77966
  2141.2      0.000467    1525.21130      1983.28137
  2299.1      0.000435    1525.14905      2064.74927
  2445.8      0.000409    1525.08850      2174.78467
  2608.9      0.000383    1525.02966      2313.38770
  2742.3      0.000365    1524.97266      2474.44238
  2886.3      0.0003465   1524.91772      2643.42627
  3029.2      0.0003301   1524.86475      2797.24829
  3132.3      0.0003193   1524.81396      2907.86108
  3197.9      0.0003127   1524.76563      2950.05444
  3156.0      0.0003169   1524.71960      2912.60742
  3047.9      0.0003281   1524.67615      2806.80737
  2900.0      0.0003448   1524.63525      2663.15747
  2736.1      0.000365    1524.59705      2520.29639
  2628.4      0.000380    1524.56165      2415.41016
  2565.8      0.000390    1524.52905      2377.24048
  2568.7      0.000389    1524.49939      2420.29810
  2645.3      0.000378    1524.47278      2540.07837
  2762.8      0.000362    1524.44910      2710.41333
  2937.7      0.0003404   1524.42847      2885.53076
  3070.2      0.0003257   1524.41101      3008.36914
  3117.5      0.0003208   1524.39673      3027.92456
  3045.4      0.0003284   1524.38562      2924.15454
  2840.3      0.000352    1524.37756      2719.84863
  2583.7      0.000387    1524.37280      2464.14453
  2314.7      0.000432    1524.37109      2207.64868
  2086.7      0.000479    1524.37256      1987.21094
  1933.3      0.000517    1524.37720      1820.43274
  1821.3      0.000549    1524.38489      1707.72876
  1761.4      0.000568    1524.39563      1638.99475
  1721.2      0.000581    1524.40942      1600.82043
  1695.6      0.000590    1524.42603      1581.43640
  1693.9      0.000590    1524.44543      1572.49292
  1678.2      0.000596    1524.46753      1569.14343
  1680.9      0.000595    1524.49231      1568.87671
  1686.6      0.000593    1524.51965      1570.52686
  1679.5      0.000595    1524.54944      1573.53259
  1703.4      0.000587    1524.58142      1577.52820
  1699.5      0.000588    1524.61560      1582.04529
  1721.0      0.000581    1524.65186      1586.91028
  1727.5      0.000579    1524.68982      1591.65540
  1725.6      0.000580    1524.72949      1596.10376
  1750.0      0.000571    1524.77063      1600.46448
  1749.3      0.000572    1524.81311      1605.50500
  1752.0      0.000571    1524.85681      1612.60193
  1775.9      0.000563    1524.90125      1623.76184
  1780.8      0.000562    1524.94653      1641.57495
  1805.2      0.000554    1524.99231      1669.02173
  1830.0      0.000546    1525.03845      1708.94250
  1865.6      0.000536    1525.08459      1763.08301
  1911.2      0.000523    1525.13062      1830.84131
  1958.3      0.000511    1525.17615      1908.06726
  2032.4      0.000492    1525.22119      1986.51099
  2083.6      0.000480    1525.26538      2054.40698
  2121.0      0.000471    1525.30847      2098.63672
  2142.5      0.000467    1525.35022      2108.81274
  2110.2      0.000474    1525.39038      2082.49756
  2062.9      0.000485    1525.42883      2026.71423
  1995.0      0.000501    1525.46521      1954.17053
  1923.7      0.000520    1525.49939      1878.30811
  1873.5      0.000534    1525.53101      1810.17688
  1817.6      0.000550    1525.55994      1757.10876
  1795.8      0.000557    1525.58594      1722.72107
  1779.4      0.000562    1525.60876      1707.72876
  1767.1      0.000566    1525.62830      1711.04102
  1790.0      0.000559    1525.64417      1730.64636
  1807.8      0.000553    1525.65637      1764.12036
  1850.6      0.000540    1525.66467      1808.78564
  1921.6      0.000520    1525.66882      1861.69373
  1984.3      0.000504    1525.66882      1919.72485
  2098.7      0.000476    1525.66431      1980.05042
  2200.7      0.000454    1525.65540      2041.25293
  2312.9      0.000432    1525.64185      2104.93945
  2441.2      0.000410    1525.62341      2177.15161
  2530.8      0.000395    1525.60034      2268.85498
  2630.5      0.000380    1525.57227      2394.51074
  2747.5      0.000364    1525.53918      2567.28394
  2864.7      0.0003491   1525.50122      2790.55640
  3071.9      0.0003255   1525.45825      3048.46729
  3256.1      0.0003071   1525.41016      3301.93164
  3442.2      0.0002905   1525.35718      3492.87744
  3552.1      0.0002815   1525.29919      3561.88647
  3472.2      0.0002880   1525.23645      3477.99219
  3294.9      0.0003035   1525.16882      3260.81885
  3008.9      0.0003323   1525.09644      2966.93335
  2700.5      0.000370    1525.01953      2658.71655
  2460.6      0.000406    1524.93823      2383.36401
  2244.0      0.000446    1524.85266      2164.75928
  2102.3      0.000476    1524.76294      2005.48792
  2008.8      0.000498    1524.66943      1895.08398
  1921.2      0.000521    1524.57227      1819.06580
  1877.3      0.000533    1524.47168      1764.88074
  1830.1      0.000546    1524.36792      1724.05066
  1790.6      0.000558    1524.26135      1691.80945
  1771.8      0.000564    1524.15210      1665.85474
  1736.6      0.000576    1524.04077      1645.22778
  1718.8      0.000582    1523.92749      1629.64099
  1702.6      0.000587    1523.81262      1619.19592
  1691.8      0.000591    1523.69666      1614.29797
  1685.8      0.000593    1523.57983      1615.60901
  1683.0      0.000594    1523.46277      1623.91736
  1688.1      0.000592    1523.34546      1639.88025
  1714.0      0.000583    1523.22876      1663.68286
  1736.0      0.000576    1523.11279      1694.74426
  1770.1      0.000565    1522.99817      1731.65320
  1813.9      0.000551    1522.88525      1772.51672
  1853.9      0.000539    1522.77441      1815.66101
  1898.4      0.000527    1522.66614      1860.61328
  1935.8      0.000517    1522.56091      1908.82690
  1968.4      0.000508    1522.45923      1962.89612
  2028.1      0.000493    1522.36133      2023.76611
  2080.5      0.000481    1522.26782      2087.62329
  2141.7      0.000467    1522.17896      2144.36792
  2204.0      0.000454    1522.09534      2179.07129
  2214.8      0.000452    1522.01709      2177.70337
  2190.4      0.000457    1521.94495      2136.26538
  2121.5      0.000471    1521.87891      2064.46362
  2029.5      0.000493    1521.81958      1979.41040
  1962.5      0.000510    1521.76721      1897.50232
  1902.3      0.000526    1521.72205      1829.88599
  1867.1      0.000536    1521.68445      1781.28162
  1850.1      0.000541    1521.65454      1751.42017
  1840.1      0.000543    1521.63269      1737.71521
  1840.0      0.000543    1521.61902      1737.69885
  1852.6      0.000540    1521.61377      1750.11536
  1869.6      0.000535    1521.61694      1774.91394
  1900.6      0.000526    1521.62854      1812.74158
  1935.9      0.000517    1521.64893      1864.19849
  1977.8      0.000506    1521.67786      1929.22510
  2033.3      0.000492    1521.71545      2006.77209
  2076.5      0.000482    1521.76160      2094.82861
  2145.0      0.000466    1521.81616      2190.21265
  2213.3      0.000452    1521.87903      2287.58032
  2271.6      0.000440    1521.95007      2378.57886
  2333.5      0.000429    1522.02893      2452.04688
  2361.8      0.000423    1522.11548      2495.95728
  2352.5      0.000425    1522.20947      2501.28174
  2329.1      0.000429    1522.31042      2466.00781
  2254.5      0.000444    1522.41809      2396.01709
  2180.4      0.000459    1522.53186      2302.33228
  2105.9      0.000475    1522.65149      2197.73291
  2014.3      0.000496    1522.77649      2094.67554
  1956.2      0.000511    1522.90625      2003.70398
  1909.0      0.000524    1523.04041      1932.11194
  1867.8      0.000535    1523.17822      1883.58960
  1858.8      0.000538    1523.31909      1858.76196
  1856.5      0.000539    1523.46252      1856.44543
  1850.8      0.000540    1523.60803      1874.95813
  1872.1      0.000534    1523.75476      1911.99609
  1885.0      0.000531    1523.90222      1962.49121
  1920.0      0.000521    1524.04980      2016.80872
  1961.2      0.000510    1524.19678      2061.17188
  1969.0      0.000508    1524.34253      2080.77173
  1961.8      0.000510    1524.48657      2065.58667
  1923.1      0.000520    1524.62817      2015.87732
  1853.6      0.000539    1524.76697      1941.75671
  1782.3      0.000561    1524.90210      1857.70483
  1721.3      0.000581    1525.03345      1777.36963
  1670.5      0.000599    1525.16028      1710.54773
  1641.3      0.000609    1525.28223      1662.10181
  1621.0      0.000617    1525.39893      1632.49243
  1615.6      0.000619    1525.51013      1619.31177
  1617.5      0.000618    1525.61548      1618.96021
  1616.1      0.000619    1525.71484      1627.86169
  1633.8      0.000612    1525.80811      1643.03259
  1650.7      0.000606    1525.89514      1662.16272
  1670.4      0.000599    1525.97607      1683.46814
  1700.9      0.000588    1526.05090      1705.53381
  1730.8      0.000578    1526.11975      1727.26807
  1750.4      0.000571    1526.18298      1747.84631
  1768.8      0.000565    1526.24084      1766.54175
  1790.9      0.000558    1526.29382      1782.52075
  1796.9      0.000557    1526.34241      1794.80322
  1804.3      0.000554    1526.38708      1802.50903
  1800.1      0.000556    1526.42847      1805.27734
  1796.7      0.000557    1526.46741      1803.58301
  1787.9      0.000559    1526.50452      1798.60547
  1768.8      0.000565    1526.54065      1791.81458
  1768.7      0.000565    1526.57678      1784.62158
  1756.6      0.000569    1526.61365      1778.16187
  1752.7      0.000571    1526.65222      1773.18713
  1749.2      0.000572    1526.69348      1770.15710
  1746.9      0.000572    1526.73840      1769.46533
  1738.4      0.000575    1526.78772      1771.74133
  1749.3      0.000572    1526.84241      1778.16101
  1754.5      0.000570    1526.90320      1790.57825
  1761.8      0.000568    1526.97095      1811.09241
  1787.6      0.000559    1527.04626      1840.92468
  1806.3      0.000554    1527.12952      1879.22803
  1830.1      0.000546    1527.22119      1922.44055
  1867.7      0.000535    1527.32141      1964.39709
  1892.2      0.000528    1527.43018      1997.33008
  1895.1      0.000528    1527.54724      2013.91907
  1884.4      0.000531    1527.67224      2010.30273
  1857.9      0.000538    1527.80432      1988.24890
  1825.3      0.000548    1527.94238      1954.28821
  1800.9      0.000555    1528.08521      1916.83154
  1784.4      0.000560    1528.23096      1883.64233
  1792.5      0.000558    1528.37769      1860.54456
  1805.8      0.000554    1528.52271      1851.12854
  1832.9      0.000546    1528.66357      1857.25305
  1871.5      0.000534    1528.79688      1879.91357
  1909.5      0.000524    1528.91895      1920.00574
  1953.9      0.000512    1529.02612      1978.14893
  2014.4      0.000496    1529.11401      2053.36621
  2075.8      0.000482    1529.17798      2141.03271
  2134.5      0.000468    1529.21326      2231.41602
  2201.7      0.000454    1529.21484      2310.10815
  2239.0      0.000447    1529.17761      2361.01831
  2250.2      0.000444    1529.09631      2372.45801
  2237.4      0.000447    1528.96594      2343.93677
  2192.3      0.000456    1528.78174      2286.30420
  2140.2      0.000467    1528.53955      2214.60840
  2087.3      0.000479    1528.23547      2141.27222
  2035.4      0.000491    1527.86682      2072.96729
  1992.4      0.000502    1527.43188      2010.89478
  1937.7      0.000516    1526.93091      1953.56726
  1880.0      0.000532    1526.36560      1899.67871
  1824.0      0.000548    1525.74036      1849.15100
  1773.8      0.000564    1525.06213      1802.84814
  1728.2      0.000579    1524.34167      1761.93152
  1689.5      0.000592    1523.59351      1727.20544
  1661.5      0.000602    1522.83728      1698.74744
  1638.1      0.000610    1522.09827      1675.95581
  1616.9      0.000618    1521.40808      1657.88489
  1595.1      0.000627    1520.80652      1643.72864
  1581.4      0.000632    1520.34167      1632.87781
  1569.8      0.000637    1520.07202      1625.00427
  1564.9      0.000639    1520.06763      1619.92078
  1559.6      0.000641    1520.41150      1617.44397
  1556.7      0.000642    1521.20203      1617.33313
  1559.0      0.000641    1522.55420      1619.27173
  1561.7     .            .               .
  1570.6     .            .               .
  1583.6     .            .               .
  1587.3     .            .               .
  1597.9     .            .               .
  1611.0     .            .               .
  1612.7     .            .               .
  1626.1     .            .               .
  1630.5     .            .               .
  1633.8     .            .               .
  1643.7     .            .               .
  1651.9     .            .               .
  1654.7     .            .               .
  1652.0     .            .               .
  1646.4     .            .               .
  1635.2     .            .               .
  1620.5     .            .               .
  1603.2     .            .               .
  1578.0     .            .               .
  1563.5     .            .               .
  1549.8     .            .               .
  1533.4     .            .               .
  1529.0     .            .               .
  1524.0     .            .               .
  1521.5     .            .               .
_pd_meas_number_of_points              1650
_pd_proc_number_of_points              1650

loop_
      _refln_index_h
      _refln_index_k
      _refln_index_l
      _refln_observed_status
      _refln_F_squared_meas
      _refln_F_squared_calc
      _refln_phase_calc
      _refln_d_spacing
      _gsas_i100_meas
   1   1   0 o  28393.918  28145.529  180.00   6.75142  11.01
   1   0  -2 o  9118.846   9467.083    0.00    6.34597   3.13
   2   0  -1 o  18393.014  18387.383  180.00   5.45292   4.66
   0   0   3 o  108787.66  107639.42  180.00   5.03684   7.84
   2   0   2 o  5532.078   5741.020   180.00   4.62397   1.01
   2   1   1 o  39337.52   38381.67   180.00   4.24210  12.08
   1   1   3 o  161.954    93.499      0.00    4.03713   0.05
   3   0   0 o  21299.121  19937.133   0.00    3.89793   2.76
   1   0   4 o  80114.29   72986.92   180.00   3.59471   8.84
   2   1  -2 o  4342.253   4094.369   180.00   3.81499   1.08
   2   2   0 o  29650.887  30333.785  180.00   3.37571   2.89
   2   0  -4 o  2295.648   2169.004    0.00    3.17299   0.20
   3   1  -1 o  10652.605  10176.815   0.00    3.17106   1.83
   1   0  -5 o  55466.96   53616.93   180.00   2.92597   4.07
   3   0  -3 o  833.221    652.277    180.00   3.08265   0.07
   3   0   3 o   0.120      0.094      0.00    3.08265   0.00
   3   1   2 o  2989.777   2941.542    0.00    2.98028   0.45
   2   1   4 o  16308.990  17046.904   0.00    2.87166   2.30
   4   0   1 o  133923.16  139706.19   0.00    2.87023   9.45
   2   0   5 o  4210.364   4993.245    0.00    2.68469   0.26
   2   2   3 o  392.992    410.470     0.00    2.80417   0.05
   0   0   6 o  8095.665   9469.990   180.00   2.51842   0.15
   4   0  -2 o  6732.373   7010.734    0.00    2.72646   0.43
   3   2   1 o  1508.152   1653.309   180.00   2.64144   0.18
   2   1  -5 o  9463.636   10360.425   0.00    2.49469   1.01
   4   1   0 o  22658.619  23879.705   0.00    2.55180   2.53
   3   2  -2 o  1554.980   1712.559   180.00   2.52810   0.17
   1   1   6 o  1468.998   934.950    180.00   2.35960   0.14
   3   1  -4 o  3321.668   3025.120   180.00   2.46077   0.35
   1   0   7 o  3010.489   2965.219    0.00    2.12278   0.12
   4   0   4 o  12502.677  14088.251  180.00   2.31199   0.57
   5   0  -1 o  2923.618   3265.408    0.00    2.31124   0.13
   4   1  -3 o  4187.573   4686.248   180.00   2.27633   0.37
   4   1   3 o  242.740    271.646     0.00    2.27633   0.02
   3   1   5 o   0.516      0.423      0.00    2.21101   0.00
   3   3   0 o  5179.146   5454.294    0.00    2.25047   0.23
   3   0  -6 o  9967.588   10047.461   0.00    2.11532   0.38
   3   0   6 o  12413.585  12513.047   0.00    2.11532   0.48
   5   0   2 o  28452.801  29106.023   0.00    2.23417   1.22
   3   2   4 o  1308.416   1209.802   180.00   2.18729   0.11
   4   2  -1 o   1.599      1.454     180.00   2.18666   0.00
   2   0  -7 o  183.524    186.440    180.00   2.02504   0.01
   4   0  -5 o  15737.804  15477.834  180.00   2.10120   0.60
   4   2   2 o  2018.677   2011.037   180.00   2.12105   0.16
   2   2   6 o  523.118    505.633     0.00    2.01857   0.04
   5   1   1 o  140.497    73.513     180.00   2.08027   0.01
   1   0  -8 o  20639.637  20008.904   0.00    1.86465   0.62
   2   1   7 o  61.674     47.031     180.00   1.93967   0.00
   3   3   3 o  10547.907  10393.144  180.00   2.05471   0.77
   3   2  -5 o  1745.052   1364.503   180.00   2.00628   0.12
   5   1  -2 o  2684.529   2975.801   180.00   2.02354   0.19
   5   0  -4 o  9870.153   11962.934  180.00   1.98851   0.34
   2   0   8 o  2877.828   3068.435   180.00   1.79736   0.08
   6   0   0 o  99.940     58.918     180.00   1.94897   0.00
   4   2  -4 o  2526.066   2650.322   180.00   1.90750   0.16
   4   3   1 o  9494.115   9765.609    0.00    1.90708   0.60
   3   1  -7 o  2821.699   3046.631    0.00    1.79701   0.16
   5   0   5 o  59637.03   60297.48   180.00   1.84959   1.77
   0   0   9 o  96430.70   97609.68    0.00    1.67895   0.79
   5   2   0 o  10449.705  9624.382   180.00   1.87251   0.63
   2   1  -8 o  2193.159   2256.686   180.00   1.73686   0.11
   4   3  -2 o  1360.311   1355.629    0.00    1.86308   0.08
   4   1   6 o  24086.873  25436.854  180.00   1.79248   1.34
   4   1  -6 o  6447.006   6808.345   180.00   1.79248   0.36
   5   1   4 o  1743.755   1634.061   180.00   1.83564   0.10
   4   0   7 o  1010.928   1031.758   180.00   1.73655   0.03
   6   0  -3 o  2193.004   2093.056   180.00   1.81764   0.06
   6   0   3 o  917.833    876.003    180.00   1.81764   0.03
   1   1   9 o  847.635    769.526    180.00   1.62932   0.04
   4   2   5 o   3.415      3.515     180.00   1.78386   0.00
   6   1  -1 o  3178.796   3035.463   180.00   1.77100   0.17
   3   2   7 o  28.446     28.744      0.00    1.68180   0.00
   5   2  -3 o  1320.026   1490.141    0.00    1.75514   0.07
   5   2   3 o  76.278     86.108     180.00   1.75514   0.00
   5   1  -5 o  333.876    332.005    180.00   1.72467   0.02
   3   1   8 o   0.548      0.511      0.00    1.63220   0.00
   4   3   4 o  1317.394   1447.976   180.00   1.71335   0.07
   6   1   2 o  5520.734   5582.971   180.00   1.73560   0.29
   3   3   6 o  13077.438  13406.346   0.00    1.67809   0.64
   4   4   0 o  62702.11   62313.13    0.00    1.68786   1.55
   4   0  -8 o  15295.408  15065.614   0.00    1.58649   0.34
   1   0  10 o  16043.740  13334.299   0.00    1.49859   0.32
   3   0   9 o  2554.161   2112.457   180.00   1.54199   0.05
   3   0  -9 o  63.114     52.199      0.00    1.54199   0.00
   5   0  -7 o  1846.303   1828.174   180.00   1.58625   0.04
   5   3  -1 o  4703.550   4794.090    0.00    1.66043   0.23
   7   0   1 o  436.542    444.945     0.00    1.66043   0.01
   4   3  -5 o  18.227     14.008      0.00    1.62207   0.00
   3   2  -8 o  1015.036   797.993     0.00    1.54443   0.04
   2   0 -10 o  4189.251   3366.428   180.00   1.46299   0.08
   6   1  -4 o  4480.977   4697.142    0.00    1.61263   0.20
   6   2   1 o  15057.368  15616.830  180.00   1.61238   0.68
   5   3   2 o  722.135    661.180     0.00    1.63115   0.03
   7   0  -2 o  1051.629   962.862     0.00    1.63115   0.02
   2   2   9 o  4495.332   3652.971   180.00   1.50328   0.18
   4   4   3 o  585.127    680.647    180.00   1.60039   0.03
   4   2  -7 o  2106.237   1687.076    0.00    1.54420   0.09
   6   2  -2 o  123.404    123.524     0.00    1.58553   0.01
   6   0  -6 o  5078.734   4689.896    0.00    1.54132   0.11
   6   0   6 o  1727.514   1595.252    0.00    1.54132   0.04
   5   1   7 o  1091.739   883.038    180.00   1.50533   0.04
   7   1   0 o  444.310    297.942     0.00    1.54888   0.02
   2   1  10 o  14771.994  11100.874  180.00   1.42980   0.53
   5   0   8 o  6710.705   4712.288    0.00    1.46944   0.13
   6   1   5 o  12838.420  13233.934   0.00    1.53584   0.53
   1   0 -11 o  5166.036   3246.024    0.00    1.36430   0.08
   5   3  -4 o  1861.907   1735.090   180.00   1.52782   0.08
   7   0   4 o  1110.599   1034.954    0.00    1.52782   0.02
   5   2  -6 o  47.233     37.749      0.00    1.50266   0.00
   5   2   6 o  2925.004   2337.661    0.00    1.50266   0.12
   4   2   8 o   1.955      1.595      0.00    1.43583   0.00
   2   0  11 o  3887.656   3026.071   180.00   1.33727   0.06
   6   2   4 o  3314.041   3057.161    0.00    1.49014   0.13
   5   4   1 o  25545.990  23127.955   0.00    1.48994   0.99
   4   1   9 o  17959.998  14582.427   0.00    1.40259   0.62
   4   1  -9 o  12854.481  10437.061   0.00    1.40259   0.44
   7   1  -3 o  1711.609   1231.833    0.00    1.48046   0.07
   7   1   3 o  10.605      7.632     180.00   1.48046   0.00
   3   1 -10 o  2221.796   1111.134    0.00    1.36969   0.07
   4   3   7 o  6734.498   5652.462    0.00    1.43565   0.24
   6   3   0 o  65.089     41.150      0.00    1.47328   0.00
   5   4  -2 o  2470.539   1748.571    0.00    1.46868   0.09
   5   1  -8 o  582.383    466.454    180.00   1.40442   0.02
   5   3   5 o  6075.330   5755.917   180.00   1.46204   0.23
   7   0  -5 o  6656.941   6306.955    0.00    1.46204   0.12
   8   0  -1 o  26174.492  22909.365   0.00    1.45493   0.49
   6   2  -5 o  485.432    374.703     0.00    1.42892   0.02
   4   0  10 o  52258.56   44166.42    0.00    1.34235   0.83
   8   0   2 o  7803.390   6580.113    0.00    1.43511   0.14
   2   1 -11 o  5865.543   4990.405   180.00   1.31179   0.18
   3   3   9 o  3982.249   3387.588   180.00   1.34571   0.13
   0   0  12 o  2373.626   2797.766    0.00    1.25921   0.01
   7   2  -1 o  1628.919   1064.514   180.00   1.42228   0.06
   4   4   6 o  15559.479  12792.191  180.00   1.40209   0.54
   3   2  10 o  2550.766   2171.404   180.00   1.31657   0.08
   6   3  -3 o  1875.682   1519.514   180.00   1.41403   0.07
   6   3   3 o  2412.330   1954.259   180.00   1.41403   0.08
   6   1  -7 o  1125.622   403.405     0.00    1.37483   0.04
   4   3  -8 o  3028.163   2505.899    0.00    1.34733   0.10
   7   2   2 o  3114.545   2501.039   180.00   1.40375   0.11
   5   4   4 o  32469.771  28142.434  180.00   1.39190   1.11
   3   1  11 o  3232.745   3670.110    0.00    1.26490   0.09
   1   1  12 o  1373.524   1789.494   180.00   1.23786   0.04
   8   0  -4 o  8841.007   7596.974   180.00   1.36323   0.14
   8   1   1 o  11551.804  9480.623    0.00    1.36308   0.38
   5   0 -10 o  10683.710  11466.290   0.00    1.26919   0.15
   5   4  -5 o  32351.863  30775.971  180.00   1.34161   1.03
   7   0   7 o  7129.931   6208.797    0.00    1.32114   0.11
   5   3  -7 o  1326.835   1155.418   180.00   1.32114   0.04
   4   0 -11 o  15179.240  17851.258   0.00    1.24327   0.21
   5   5   0 o  7927.902   6319.805    0.00    1.35028   0.13
   6   1   8 o  977.531    1089.173   180.00   1.29668   0.03
   8   1  -2 o  1081.208   897.389     0.00    1.34674   0.03
   6   0  -9 o  5508.437   5726.104   180.00   1.27204   0.08
   6   0   9 o  1618.092   1682.031   180.00   1.27204   0.02
   7   2  -4 o  58.094     46.571      0.00    1.33626   0.00
   6   4  -1 o  269.885    212.032     0.00    1.33612   0.01
   7   1   6 o  955.985    887.128     0.00    1.31933   0.03
   7   1  -6 o  20.855     19.353     180.00   1.31933   0.00
   4   2 -10 o  2642.081   2999.563   180.00   1.24735   0.07
   8   0   5 o  22600.547  20818.078  180.00   1.31589   0.35
   6   2   7 o  119.509    134.443     0.00    1.29655   0.00
   6   4   2 o  54.450     47.668     180.00   1.32072   0.00
   5   2  -9 o  1130.110   1289.040   180.00   1.25004   0.03
   5   2   9 o  1952.097   2226.624   180.00   1.25004   0.05
   7   3   1 o  1425.835   1129.585   180.00   1.31070   0.04
   7   2   5 o  2214.286   2417.187    0.00    1.29158   0.07
   5   5   3 o  3856.571   3535.164   180.00   1.30423   0.12
   7   0  -8 o   1.192      1.362     180.00   1.25134   0.00
   5   3   8 o  2474.513   2828.015    0.00    1.25134   0.07
   9   0   0 o  48358.90   52900.98    0.00    1.29931   0.72
   7   3  -2 o  2427.304   2708.098   180.00   1.29615   0.07
   8   2   0 o  1592.554   1659.083   180.00   1.27590   0.05
   6   3   6 o  481.974    491.689     0.00    1.27166   0.01
   6   3  -6 o  16.977     17.319      0.00    1.27166   0.00
   8   1   4 o  10983.735  13216.983  180.00   1.28680   0.32
   6   4  -4 o  1110.218   1280.126   180.00   1.26405   0.03
   8   1  -5 o  11879.872  13467.083  180.00   1.24676   0.33
   9   0  -3 o  7809.935   10052.524  180.00   1.25813   0.11
   9   0   3 o  10721.215  13799.764  180.00   1.25813   0.15
   7   3   4 o  4658.973   5164.507    0.00    1.24246   0.13
   8   2  -3 o  105.026    147.171    180.00   1.23683   0.00
   8   2   3 o  196.559    275.435     0.00    1.23683   0.01
_reflns_number_total                   183
_reflns_limit_h_min                    0
_reflns_limit_h_max                    10
_reflns_limit_k_min                    0
_reflns_limit_k_max                    6
_reflns_limit_l_min                    -13
_reflns_limit_l_max                    13
_reflns_d_resolution_high              1.237
_reflns_d_resolution_low               6.751
#--eof--eof--eof--eof--eof--eof--eof--eof--eof--eof--eof--eof--eof--eof--eof--#
